<routes>
        <vType id="typeWE" accel="5" decel="4.5" sigma="0.5" length="5" minGap="2.5" maxSpeed="30" guiShape="passenger"/>
        <vType id="typeNS" accel="0.8" decel="4.5" sigma="0.5" length="7" minGap="3" maxSpeed="25" guiShape="bus"/>

        <route id="right" edges="51o 1i 2o 52i" />
        <route id="left" edges="52o 2i 1o 51i" />
		<route id="up" edges="53o 3i 4o 54i" />
        <route id="down" edges="54o 4i 3o 53i" />

        <vehicle id="left_0" type="typeWE" route="left" depart="0" />
		<vehicle id="up_0" type="typeNS" route="up" depart="0" />
        <vehicle id="left_1" type="typeWE" route="left" depart="2" />
		<vehicle id="up_1" type="typeNS" route="up" depart="2" />
        <vehicle id="right_0" type="typeWE" route="right" depart="3" />
		<vehicle id="down_0" type="typeNS" route="down" depart="3" />
        <vehicle id="right_1" type="typeWE" route="right" depart="4" />
		<vehicle id="down_1" type="typeNS" route="down" depart="4" />
        <vehicle id="left_2" type="typeWE" route="left" depart="5" />
		<vehicle id="up_2" type="typeNS" route="up" depart="5" />
        <vehicle id="left_3" type="typeWE" route="left" depart="6" />
		<vehicle id="up_3" type="typeNS" route="up" depart="6" />
        <vehicle id="right_2" type="typeWE" route="right" depart="7" />
		<vehicle id="down_2" type="typeNS" route="down" depart="7" />
        <vehicle id="right_3" type="typeWE" route="right" depart="8" />
		<vehicle id="down_3" type="typeNS" route="down" depart="8" />
		<vehicle id="left_4" type="typeWE" route="left" depart="9" />
		<vehicle id="up_4" type="typeNS" route="up" depart="9" />
        <vehicle id="left_5" type="typeWE" route="left" depart="10" />
		<vehicle id="up_5" type="typeNS" route="up" depart="10" />
        <vehicle id="right_4" type="typeWE" route="right" depart="11" />
		<vehicle id="down_4" type="typeNS" route="down" depart="11" />
        <vehicle id="right_5" type="typeWE" route="right" depart="12" />
		<vehicle id="down_5" type="typeNS" route="down" depart="12" />
		<vehicle id="left_6" type="typeWE" route="left" depart="13" />
		<vehicle id="up_6" type="typeNS" route="up" depart="13" />
        <vehicle id="left_7" type="typeWE" route="left" depart="14" />
		<vehicle id="up_7" type="typeNS" route="up" depart="14" />
        <vehicle id="right_6" type="typeWE" route="right" depart="15" />
		<vehicle id="down_6" type="typeNS" route="down" depart="15" />
        <vehicle id="right_7" type="typeWE" route="right" depart="16" />
		<vehicle id="down_7" type="typeNS" route="down" depart="16" />
		<vehicle id="left_8" type="typeWE" route="left" depart="40" />
        <vehicle id="left_9" type="typeWE" route="left" depart="42" />
        <vehicle id="right_8" type="typeWE" route="right" depart="44" />
        <vehicle id="right_9" type="typeWE" route="right" depart="46" />
		<vehicle id="left_10" type="typeWE" route="left" depart="48" />
        <vehicle id="left_11" type="typeWE" route="left" depart="50" />
        <vehicle id="right_10" type="typeWE" route="right" depart="52" />
        <vehicle id="right_11" type="typeWE" route="right" depart="54" />
		
	
        
        
        
		
		

</routes>