<?xml version="1.0" encoding="UTF-8"?>

<!-- generated on Fri Apr 27 21:37:02 2018 by SUMO activitygen Version 0.32.0
<?xml version="1.0" encoding="UTF-8"?>

<configuration xmlns:xsi="http://www.w3.org/2001/XMLSchema-instance" xsi:noNamespaceSchemaLocation="http://sumo.dlr.de/xsd/activitygenConfiguration.xsd">

    <input>
        <net-file value="/mnt/c/my_programs/SCHOOL/MSD/GIT/core/tests/ImagineRIT/static/cross.net.xml"/>
        <stat-file value="/mnt/c/my_programs/SCHOOL/MSD/GIT/core/tests/ImagineRIT/static/cross.stat.xml"/>
    </input>

    <output>
        <output-file value="/mnt/c/my_programs/SCHOOL/MSD/GIT/core/tests/ImagineRIT/static/cross.trips.rou.xml"/>
    </output>

    <random_number>
        <random value="true"/>
    </random_number>

</configuration>
-->

<routes xmlns:xsi="http://www.w3.org/2001/XMLSchema-instance" xsi:noNamespaceSchemaLocation="http://sumo.dlr.de/xsd/routes_file.xsd">
    <vType id="default" vClass="passenger" color="red"/>
    <vType id="random" vClass="passenger" color="blue"/>
    <vType id="bus" vClass="bus" color="green"/>

    <trip id="carIn112:1" type="default" depart="478" departPos="243.00" arrivalPos="280.86" arrivalSpeed="0.00" from="1i" to="3o"/>
    <trip id="carIn39:1" type="default" depart="480" departPos="243.00" arrivalPos="275.03" arrivalSpeed="0.00" from="2i" to="4o"/>
    <trip id="carIn48:1" type="default" depart="480" departPos="243.00" arrivalPos="5.64" arrivalSpeed="0.00" from="3i" to="1i"/>
    <trip id="carIn387:1" type="default" depart="480" departPos="243.00" arrivalPos="5.43" arrivalSpeed="0.00" from="1i" to="3i"/>
    <trip id="carIn287:1" type="default" depart="482" departPos="243.00" arrivalPos="270.88" arrivalSpeed="0.00" from="2i" to="4o"/>
    <trip id="carIn224:1" type="default" depart="486" departPos="243.00" arrivalPos="21.49" arrivalSpeed="0.00" from="4i" to="2i"/>
    <trip id="carIn277:1" type="default" depart="486" departPos="243.00" arrivalPos="260.96" arrivalSpeed="0.00" from="2i" to="4o"/>
    <trip id="carIn305:1" type="default" depart="486" departPos="243.00" arrivalPos="260.98" arrivalSpeed="0.00" from="3i" to="1o"/>
    <trip id="carIn233:1" type="default" depart="487" departPos="243.00" arrivalPos="24.76" arrivalSpeed="0.00" from="4i" to="2i"/>
    <trip id="carIn61:1" type="default" depart="489" departPos="243.00" arrivalPos="29.72" arrivalSpeed="0.00" from="2i" to="4i"/>
    <trip id="carIn251:1" type="default" depart="489" departPos="243.00" arrivalPos="252.58" arrivalSpeed="0.00" from="1i" to="3o"/>
    <trip id="carIn319:1" type="default" depart="489" departPos="243.00" arrivalPos="29.24" arrivalSpeed="0.00" from="1i" to="3i"/>
    <trip id="carIn328:1" type="default" depart="490" departPos="243.00" arrivalPos="31.70" arrivalSpeed="0.00" from="3i" to="1i"/>
    <trip id="carIn390:1" type="default" depart="491" departPos="243.00" arrivalPos="34.34" arrivalSpeed="0.00" from="2i" to="4i"/>
    <trip id="carIn476:1" type="default" depart="492" departPos="243.00" arrivalPos="0.56" arrivalSpeed="0.00" from="3i" to="4i"/>
    <trip id="carIn179:1" type="default" depart="493" departPos="243.00" arrivalPos="39.35" arrivalSpeed="0.00" from="3i" to="1i"/>
    <trip id="carIn257:1" type="default" depart="493" departPos="243.00" arrivalPos="5.28" arrivalSpeed="0.00" from="3i" to="2i"/>
    <trip id="carIn18:1" type="default" depart="494" departPos="243.00" arrivalPos="7.02" arrivalSpeed="0.00" from="3i" to="4i"/>
    <trip id="carIn348:1" type="default" depart="494" departPos="243.00" arrivalPos="275.46" arrivalSpeed="0.00" from="1i" to="2o"/>
    <trip id="carIn385:1" type="default" depart="494" departPos="243.00" arrivalPos="238.43" arrivalSpeed="0.00" from="1i" to="3o"/>
    <trip id="carIn19:1" type="default" depart="495" departPos="0.00" arrivalPos="5.25" arrivalSpeed="0.00" from="3o" to="1i"/>
    <trip id="carIn49:1" type="default" depart="495" departPos="243.00" arrivalPos="10.61" arrivalSpeed="0.00" from="1i" to="4i"/>
    <trip id="carIn239:1" type="default" depart="495" departPos="243.00" arrivalPos="273.99" arrivalSpeed="0.00" from="2i" to="1o"/>
    <trip id="carIn289:1" type="default" depart="495" departPos="243.00" arrivalPos="45.98" arrivalSpeed="0.00" from="4i" to="2i"/>
    <trip id="carIn374:1" type="default" depart="495" departPos="0.00" arrivalPos="276.43" arrivalSpeed="0.00" from="1o" to="4o"/>
    <trip id="carIn118:1" type="default" depart="496" departPos="243.00" arrivalPos="269.39" arrivalSpeed="0.00" from="1i" to="2o"/>
    <trip id="carIn183:1" type="default" depart="496" departPos="243.00" arrivalPos="12.85" arrivalSpeed="0.00" from="1i" to="4i"/>
    <trip id="carIn195:1" type="default" depart="496" departPos="243.00" arrivalPos="271.18" arrivalSpeed="0.00" from="1i" to="2o"/>
    <trip id="carIn253:1" type="default" depart="496" departPos="243.00" arrivalPos="270.12" arrivalSpeed="0.00" from="2i" to="1o"/>
    <trip id="carIn258:1" type="default" depart="496" departPos="0.00" arrivalPos="272.17" arrivalSpeed="0.00" from="1o" to="1o"/>
    <trip id="carIn432:1" type="default" depart="496" departPos="0.00" arrivalPos="273.73" arrivalSpeed="0.00" from="1o" to="1o"/>
    <trip id="carIn111:1" type="default" depart="497" departPos="0.00" arrivalPos="269.05" arrivalSpeed="0.00" from="3o" to="4o"/>
    <trip id="carIn151:1" type="default" depart="497" departPos="0.00" arrivalPos="270.76" arrivalSpeed="0.00" from="3o" to="1o"/>
    <trip id="carIn417:1" type="default" depart="497" departPos="243.00" arrivalPos="231.02" arrivalSpeed="0.00" from="3i" to="1o"/>
    <trip id="carIn335:1" type="default" depart="498" departPos="0.00" arrivalPos="267.99" arrivalSpeed="0.00" from="2o" to="1o"/>
    <trip id="carIn351:1" type="default" depart="498" departPos="243.00" arrivalPos="17.30" arrivalSpeed="0.00" from="4i" to="3i"/>
    <trip id="carIn79:1" type="default" depart="499" departPos="0.00" arrivalPos="16.38" arrivalSpeed="0.00" from="2o" to="3i"/>
    <trip id="carIn194:1" type="default" depart="499" departPos="243.00" arrivalPos="55.20" arrivalSpeed="0.00" from="2i" to="4i"/>
    <trip id="carIn241:1" type="default" depart="499" departPos="0.00" arrivalPos="16.75" arrivalSpeed="0.00" from="3o" to="2i"/>
    <trip id="carIn312:1" type="default" depart="499" departPos="243.00" arrivalPos="225.01" arrivalSpeed="0.00" from="4i" to="2o"/>
    <trip id="carIn370:1" type="default" depart="499" departPos="0.00" arrivalPos="264.89" arrivalSpeed="0.00" from="2o" to="4o"/>
    <trip id="carIn413:1" type="default" depart="499" departPos="243.00" arrivalPos="262.77" arrivalSpeed="0.00" from="4i" to="1o"/>
    <trip id="carIn122:1" type="default" depart="500" departPos="243.00" arrivalPos="58.62" arrivalSpeed="0.00" from="4i" to="2i"/>
    <trip id="carIn144:1" type="default" depart="500" departPos="243.00" arrivalPos="258.48" arrivalSpeed="0.00" from="2i" to="1o"/>
    <trip id="carIn199:1" type="default" depart="500" departPos="0.00" arrivalPos="18.50" arrivalSpeed="0.00" from="4o" to="4i"/>
    <trip id="carIn158:1" type="default" depart="501" departPos="243.00" arrivalPos="256.76" arrivalSpeed="0.00" from="2i" to="3o"/>
    <trip id="carIn212:1" type="default" depart="501" departPos="243.00" arrivalPos="257.49" arrivalSpeed="0.00" from="4i" to="1o"/>
    <trip id="carIn226:1" type="default" depart="501" departPos="0.00" arrivalPos="258.70" arrivalSpeed="0.00" from="4o" to="3o"/>
    <trip id="carIn279:1" type="default" depart="501" departPos="243.00" arrivalPos="256.17" arrivalSpeed="0.00" from="4i" to="3o"/>
    <trip id="carIn314:1" type="default" depart="501" departPos="0.00" arrivalPos="259.88" arrivalSpeed="0.00" from="2o" to="1o"/>
    <trip id="carIn379:1" type="default" depart="501" departPos="0.00" arrivalPos="21.77" arrivalSpeed="0.00" from="1o" to="2i"/>
    <trip id="carIn93:1" type="default" depart="502" departPos="0.00" arrivalPos="257.50" arrivalSpeed="0.00" from="4o" to="4o"/>
    <trip id="carIn293:1" type="default" depart="502" departPos="0.00" arrivalPos="258.36" arrivalSpeed="0.00" from="1o" to="2o"/>
    <trip id="carIn333:1" type="default" depart="502" departPos="0.00" arrivalPos="257.40" arrivalSpeed="0.00" from="4o" to="4o"/>
    <trip id="carIn407:1" type="default" depart="502" departPos="0.00" arrivalPos="25.66" arrivalSpeed="0.00" from="3o" to="3i"/>
    <trip id="carIn464:1" type="default" depart="502" departPos="0.00" arrivalPos="256.25" arrivalSpeed="0.00" from="4o" to="4o"/>
    <trip id="carIn200:1" type="default" depart="503" departPos="243.00" arrivalPos="66.57" arrivalSpeed="0.00" from="3i" to="1i"/>
    <trip id="carIn221:1" type="default" depart="503" departPos="0.00" arrivalPos="26.58" arrivalSpeed="0.00" from="1o" to="3i"/>
    <trip id="carIn313:1" type="default" depart="503" departPos="243.00" arrivalPos="252.38" arrivalSpeed="0.00" from="1i" to="4o"/>
    <trip id="carIn150:1" type="default" depart="504" departPos="243.00" arrivalPos="247.87" arrivalSpeed="0.00" from="2i" to="3o"/>
    <trip id="carIn453:1" type="default" depart="505" departPos="0.00" arrivalPos="31.40" arrivalSpeed="0.00" from="4o" to="4i"/>
    <trip id="carIn124:1" type="default" depart="507" departPos="243.00" arrivalPos="241.18" arrivalSpeed="0.00" from="4i" to="3o"/>
    <trip id="carIn273:1" type="default" depart="507" departPos="0.00" arrivalPos="36.85" arrivalSpeed="0.00" from="1o" to="3i"/>
    <trip id="carIn346:1" type="default" depart="507" departPos="0.00" arrivalPos="37.31" arrivalSpeed="0.00" from="1o" to="1i"/>
    <trip id="carIn15:1" type="default" depart="508" departPos="0.00" arrivalPos="242.02" arrivalSpeed="0.00" from="2o" to="3o"/>
    <trip id="carIn405:1" type="default" depart="508" departPos="0.00" arrivalPos="241.09" arrivalSpeed="0.00" from="1o" to="1o"/>
    <trip id="carIn174:1" type="default" depart="509" departPos="243.00" arrivalPos="234.82" arrivalSpeed="0.00" from="4i" to="3o"/>
    <trip id="carIn465:1" type="default" depart="509" departPos="243.00" arrivalPos="236.99" arrivalSpeed="0.00" from="3i" to="4o"/>
    <trip id="carIn172:1" type="default" depart="510" departPos="0.00" arrivalPos="237.16" arrivalSpeed="0.00" from="2o" to="1o"/>
    <trip id="carIn416:1" type="default" depart="510" departPos="0.00" arrivalPos="45.42" arrivalSpeed="0.00" from="4o" to="3i"/>
    <trip id="carIn57:1" type="default" depart="511" departPos="0.00" arrivalPos="233.82" arrivalSpeed="0.00" from="3o" to="3o"/>
    <trip id="carIn76:1" type="default" depart="511" departPos="0.00" arrivalPos="232.90" arrivalSpeed="0.00" from="4o" to="1o"/>
    <trip id="carIn450:1" type="default" depart="511" departPos="243.00" arrivalPos="272.24" arrivalSpeed="0.00" from="1i" to="1o"/>
    <trip id="carIn4:1" type="default" depart="512" departPos="243.00" arrivalPos="192.46" arrivalSpeed="0.00" from="1i" to="3o"/>
    <trip id="carIn208:1" type="default" depart="512" departPos="243.00" arrivalPos="53.69" arrivalSpeed="0.00" from="2i" to="3i"/>
    <trip id="carIn211:1" type="default" depart="512" departPos="0.00" arrivalPos="51.72" arrivalSpeed="0.00" from="4o" to="3i"/>
    <trip id="carIn56:1" type="default" depart="513" departPos="243.00" arrivalPos="15.34" arrivalSpeed="0.00" from="1i" to="1i"/>
    <trip id="carIn204:1" type="default" depart="514" departPos="243.00" arrivalPos="59.66" arrivalSpeed="0.00" from="4i" to="3i"/>
    <trip id="carIn248:1" type="default" depart="514" departPos="243.00" arrivalPos="60.23" arrivalSpeed="0.00" from="4i" to="3i"/>
    <trip id="carIn263:1" type="default" depart="514" departPos="243.00" arrivalPos="223.77" arrivalSpeed="0.00" from="4i" to="1o"/>
    <trip id="carIn463:1" type="default" depart="514" departPos="243.00" arrivalPos="58.67" arrivalSpeed="0.00" from="2i" to="3i"/>
    <trip id="carIn490:1" type="default" depart="514" departPos="0.00" arrivalPos="55.49" arrivalSpeed="0.00" from="2o" to="4i"/>
    <trip id="carIn96:1" type="default" depart="515" departPos="243.00" arrivalPos="20.32" arrivalSpeed="0.00" from="2i" to="2i"/>
    <trip id="carIn216:1" type="default" depart="515" departPos="243.00" arrivalPos="219.07" arrivalSpeed="0.00" from="1i" to="4o"/>
    <trip id="carIn426:1" type="default" depart="515" departPos="0.00" arrivalPos="223.80" arrivalSpeed="0.00" from="2o" to="3o"/>
    <trip id="carIn300:1" type="default" depart="516" departPos="0.00" arrivalPos="220.09" arrivalSpeed="0.00" from="3o" to="1o"/>
    <trip id="carIn383:1" type="default" depart="516" departPos="243.00" arrivalPos="181.58" arrivalSpeed="0.00" from="1i" to="3o"/>
    <trip id="carIn447:1" type="default" depart="516" departPos="0.00" arrivalPos="61.59" arrivalSpeed="0.00" from="2o" to="4i"/>
    <trip id="carIn252:1" type="default" depart="517" departPos="0.00" arrivalPos="64.24" arrivalSpeed="0.00" from="1o" to="4i"/>
    <trip id="carIn365:1" type="default" depart="517" departPos="243.00" arrivalPos="102.12" arrivalSpeed="0.00" from="2i" to="4i"/>
    <trip id="carIn380:1" type="default" depart="517" departPos="0.00" arrivalPos="63.43" arrivalSpeed="0.00" from="2o" to="2i"/>
    <trip id="carIn459:1" type="default" depart="517" departPos="0.00" arrivalPos="217.23" arrivalSpeed="0.00" from="3o" to="2o"/>
    <trip id="carIn46:1" type="default" depart="518" departPos="0.00" arrivalPos="65.48" arrivalSpeed="0.00" from="4o" to="4i"/>
    <trip id="carIn98:1" type="default" depart="518" departPos="0.00" arrivalPos="65.79" arrivalSpeed="0.00" from="4o" to="3i"/>
    <trip id="carIn219:1" type="default" depart="518" departPos="0.00" arrivalPos="216.54" arrivalSpeed="0.00" from="4o" to="2o"/>
    <trip id="carIn261:1" type="default" depart="518" departPos="243.00" arrivalPos="104.79" arrivalSpeed="0.00" from="3i" to="1i"/>
    <trip id="carIn318:1" type="default" depart="518" departPos="243.00" arrivalPos="70.21" arrivalSpeed="0.00" from="3i" to="4i"/>
    <trip id="carIn16:1" type="default" depart="519" departPos="243.00" arrivalPos="108.31" arrivalSpeed="0.00" from="3i" to="1i"/>
    <trip id="carIn250:1" type="default" depart="519" departPos="243.00" arrivalPos="174.45" arrivalSpeed="0.00" from="3i" to="1o"/>
    <trip id="carIn428:1" type="default" depart="519" departPos="243.00" arrivalPos="72.67" arrivalSpeed="0.00" from="3i" to="2i"/>
    <trip id="carIn331:1" type="default" depart="520" departPos="243.00" arrivalPos="75.72" arrivalSpeed="0.00" from="3i" to="4i"/>
    <trip id="carIn306:1" type="default" depart="521" departPos="243.00" arrivalPos="168.75" arrivalSpeed="0.00" from="3i" to="1o"/>
    <trip id="carIn487:1" type="default" depart="521" departPos="0.00" arrivalPos="75.31" arrivalSpeed="0.00" from="3o" to="2i"/>
    <trip id="carIn9:1" type="default" depart="522" departPos="0.00" arrivalPos="205.28" arrivalSpeed="0.00" from="1o" to="2o"/>
    <trip id="carIn50:1" type="default" depart="522" departPos="243.00" arrivalPos="165.41" arrivalSpeed="0.00" from="3i" to="1o"/>
    <trip id="carIn152:1" type="default" depart="522" departPos="0.00" arrivalPos="77.61" arrivalSpeed="0.00" from="2o" to="3i"/>
    <trip id="carIn238:1" type="default" depart="522" departPos="243.00" arrivalPos="200.35" arrivalSpeed="0.00" from="3i" to="2o"/>
    <trip id="carIn350:1" type="default" depart="522" departPos="243.00" arrivalPos="81.34" arrivalSpeed="0.00" from="4i" to="1i"/>
    <trip id="carIn22:1" type="default" depart="523" departPos="0.00" arrivalPos="201.14" arrivalSpeed="0.00" from="1o" to="4o"/>
    <trip id="carIn146:1" type="default" depart="523" departPos="243.00" arrivalPos="197.76" arrivalSpeed="0.00" from="4i" to="1o"/>
    <trip id="carIn153:1" type="default" depart="523" departPos="0.00" arrivalPos="79.53" arrivalSpeed="0.00" from="3o" to="2i"/>
    <trip id="carIn166:1" type="default" depart="523" departPos="243.00" arrivalPos="162.49" arrivalSpeed="0.00" from="1i" to="3o"/>
    <trip id="carIn202:1" type="default" depart="523" departPos="243.00" arrivalPos="39.46" arrivalSpeed="0.00" from="2i" to="2i"/>
    <trip id="carIn332:1" type="default" depart="523" departPos="243.00" arrivalPos="118.40" arrivalSpeed="0.00" from="4i" to="2i"/>
    <trip id="carIn114:1" type="default" depart="524" departPos="243.00" arrivalPos="197.26" arrivalSpeed="0.00" from="3i" to="4o"/>
    <trip id="carIn147:1" type="default" depart="524" departPos="243.00" arrivalPos="121.37" arrivalSpeed="0.00" from="2i" to="4i"/>
    <trip id="carIn436:1" type="default" depart="524" departPos="243.00" arrivalPos="195.51" arrivalSpeed="0.00" from="3i" to="4o"/>
    <trip id="carIn254:1" type="default" depart="525" departPos="243.00" arrivalPos="124.00" arrivalSpeed="0.00" from="1i" to="3i"/>
    <trip id="carIn352:1" type="default" depart="525" departPos="0.00" arrivalPos="85.77" arrivalSpeed="0.00" from="3o" to="2i"/>
    <trip id="carIn47:1" type="default" depart="526" departPos="243.00" arrivalPos="191.14" arrivalSpeed="0.00" from="4i" to="3o"/>
    <trip id="carIn77:1" type="default" depart="526" departPos="243.00" arrivalPos="92.23" arrivalSpeed="0.00" from="4i" to="3i"/>
    <trip id="carIn165:1" type="default" depart="526" departPos="243.00" arrivalPos="189.96" arrivalSpeed="0.00" from="3i" to="2o"/>
    <trip id="carIn230:1" type="default" depart="526" departPos="0.00" arrivalPos="86.85" arrivalSpeed="0.00" from="4o" to="2i"/>
    <trip id="carIn267:1" type="default" depart="526" departPos="0.00" arrivalPos="88.52" arrivalSpeed="0.00" from="1o" to="3i"/>
    <trip id="carIn486:1" type="default" depart="526" departPos="243.00" arrivalPos="92.58" arrivalSpeed="0.00" from="2i" to="1i"/>
    <trip id="carIn491:1" type="default" depart="526" departPos="243.00" arrivalPos="91.72" arrivalSpeed="0.00" from="4i" to="1i"/>
    <trip id="carIn249:1" type="default" depart="527" departPos="0.00" arrivalPos="89.30" arrivalSpeed="0.00" from="3o" to="2i"/>
    <trip id="carIn274:1" type="default" depart="527" departPos="0.00" arrivalPos="193.05" arrivalSpeed="0.00" from="2o" to="1o"/>
    <trip id="carIn295:1" type="default" depart="527" departPos="243.00" arrivalPos="51.85" arrivalSpeed="0.00" from="2i" to="2i"/>
    <trip id="carIn394:1" type="default" depart="528" departPos="243.00" arrivalPos="151.34" arrivalSpeed="0.00" from="1i" to="3o"/>
    <trip id="carIn441:1" type="default" depart="528" departPos="0.00" arrivalPos="188.86" arrivalSpeed="0.00" from="2o" to="1o"/>
    <trip id="carIn121:1" type="default" depart="529" departPos="0.00" arrivalPos="186.26" arrivalSpeed="0.00" from="3o" to="1o"/>
    <trip id="carIn489:1" type="default" depart="529" departPos="243.00" arrivalPos="133.78" arrivalSpeed="0.00" from="1i" to="3i"/>
    <trip id="carIn20:1" type="default" depart="530" departPos="243.00" arrivalPos="144.40" arrivalSpeed="0.00" from="2i" to="4o"/>
    <trip id="carIn398:1" type="default" depart="530" departPos="0.00" arrivalPos="184.02" arrivalSpeed="0.00" from="4o" to="1o"/>
    <trip id="carIn415:1" type="default" depart="530" departPos="243.00" arrivalPos="223.52" arrivalSpeed="0.00" from="2i" to="2o"/>
    <trip id="carIn156:1" type="default" depart="531" departPos="243.00" arrivalPos="177.94" arrivalSpeed="0.00" from="2i" to="1o"/>
    <trip id="carIn170:1" type="default" depart="531" departPos="243.00" arrivalPos="178.46" arrivalSpeed="0.00" from="1i" to="4o"/>
    <trip id="carIn205:1" type="default" depart="531" departPos="0.00" arrivalPos="180.76" arrivalSpeed="0.00" from="4o" to="1o"/>
    <trip id="carIn245:1" type="default" depart="531" departPos="0.00" arrivalPos="100.27" arrivalSpeed="0.00" from="3o" to="2i"/>
    <trip id="carIn303:1" type="default" depart="531" departPos="0.00" arrivalPos="101.68" arrivalSpeed="0.00" from="1o" to="4i"/>
    <trip id="carIn400:1" type="default" depart="531" departPos="243.00" arrivalPos="104.01" arrivalSpeed="0.00" from="2i" to="3i"/>
    <trip id="carIn406:1" type="default" depart="531" departPos="243.00" arrivalPos="177.92" arrivalSpeed="0.00" from="4i" to="1o"/>
    <trip id="carIn164:1" type="default" depart="532" departPos="243.00" arrivalPos="175.84" arrivalSpeed="0.00" from="2i" to="3o"/>
    <trip id="carIn187:1" type="default" depart="532" departPos="243.00" arrivalPos="175.80" arrivalSpeed="0.00" from="1i" to="4o"/>
    <trip id="carIn201:1" type="default" depart="532" departPos="0.00" arrivalPos="178.29" arrivalSpeed="0.00" from="2o" to="4o"/>
    <trip id="carIn237:1" type="default" depart="532" departPos="243.00" arrivalPos="108.53" arrivalSpeed="0.00" from="4i" to="1i"/>
    <trip id="carIn326:1" type="default" depart="532" departPos="243.00" arrivalPos="138.61" arrivalSpeed="0.00" from="3i" to="1o"/>
    <trip id="carIn336:1" type="default" depart="532" departPos="243.00" arrivalPos="173.50" arrivalSpeed="0.00" from="2i" to="3o"/>
    <trip id="carIn355:1" type="default" depart="532" departPos="243.00" arrivalPos="175.91" arrivalSpeed="0.00" from="1i" to="4o"/>
    <trip id="carIn457:1" type="default" depart="532" departPos="0.00" arrivalPos="179.66" arrivalSpeed="0.00" from="2o" to="2o"/>
    <trip id="carIn495:1" type="default" depart="532" departPos="0.00" arrivalPos="103.56" arrivalSpeed="0.00" from="1o" to="1i"/>
    <trip id="carIn99:1" type="default" depart="533" departPos="243.00" arrivalPos="214.72" arrivalSpeed="0.00" from="3i" to="3o"/>
    <trip id="carIn298:1" type="default" depart="533" departPos="243.00" arrivalPos="136.68" arrivalSpeed="0.00" from="2i" to="4o"/>
    <trip id="carIn302:1" type="default" depart="533" departPos="0.00" arrivalPos="105.02" arrivalSpeed="0.00" from="4o" to="2i"/>
    <trip id="carIn401:1" type="default" depart="533" departPos="243.00" arrivalPos="136.19" arrivalSpeed="0.00" from="1i" to="3o"/>
    <trip id="carIn6:1" type="default" depart="534" departPos="0.00" arrivalPos="174.56" arrivalSpeed="0.00" from="4o" to="4o"/>
    <trip id="carIn286:1" type="default" depart="534" departPos="243.00" arrivalPos="112.25" arrivalSpeed="0.00" from="2i" to="1i"/>
    <trip id="carIn317:1" type="default" depart="534" departPos="0.00" arrivalPos="107.35" arrivalSpeed="0.00" from="3o" to="3i"/>
    <trip id="carIn324:1" type="default" depart="534" departPos="0.00" arrivalPos="108.90" arrivalSpeed="0.00" from="3o" to="4i"/>
    <trip id="carIn389:1" type="default" depart="534" departPos="0.00" arrivalPos="174.35" arrivalSpeed="0.00" from="3o" to="1o"/>
    <trip id="carIn456:1" type="default" depart="534" departPos="0.00" arrivalPos="107.95" arrivalSpeed="0.00" from="1o" to="3i"/>
    <trip id="carIn425:1" type="default" depart="535" departPos="243.00" arrivalPos="132.76" arrivalSpeed="0.00" from="4i" to="2o"/>
    <trip id="carIn103:1" type="default" depart="536" departPos="243.00" arrivalPos="128.97" arrivalSpeed="0.00" from="3i" to="1o"/>
    <trip id="carIn108:1" type="default" depart="536" departPos="243.00" arrivalPos="208.34" arrivalSpeed="0.00" from="2i" to="2o"/>
    <trip id="carIn127:1" type="default" depart="536" departPos="243.00" arrivalPos="162.80" arrivalSpeed="0.00" from="1i" to="2o"/>
    <trip id="carIn133:1" type="default" depart="536" departPos="0.00" arrivalPos="168.22" arrivalSpeed="0.00" from="2o" to="4o"/>
    <trip id="carIn169:1" type="default" depart="536" departPos="0.00" arrivalPos="168.58" arrivalSpeed="0.00" from="3o" to="2o"/>
    <trip id="carIn292:1" type="default" depart="536" departPos="0.00" arrivalPos="168.95" arrivalSpeed="0.00" from="4o" to="3o"/>
    <trip id="carIn437:1" type="default" depart="536" departPos="243.00" arrivalPos="119.26" arrivalSpeed="0.00" from="2i" to="1i"/>
    <trip id="carIn72:1" type="default" depart="537" departPos="243.00" arrivalPos="160.03" arrivalSpeed="0.00" from="2i" to="3o"/>
    <trip id="carIn422:1" type="default" depart="537" departPos="243.00" arrivalPos="205.14" arrivalSpeed="0.00" from="1i" to="1o"/>
    <trip id="carIn52:1" type="default" depart="538" departPos="243.00" arrivalPos="158.74" arrivalSpeed="0.00" from="3i" to="1i"/>
    <trip id="carIn433:1" type="default" depart="538" departPos="243.00" arrivalPos="158.53" arrivalSpeed="0.00" from="3i" to="1i"/>
    <trip id="carIn32:1" type="default" depart="539" departPos="243.00" arrivalPos="122.28" arrivalSpeed="0.00" from="1i" to="3o"/>
    <trip id="carIn51:1" type="default" depart="539" departPos="243.00" arrivalPos="120.46" arrivalSpeed="0.00" from="3i" to="1o"/>
    <trip id="carIn321:1" type="default" depart="539" departPos="243.00" arrivalPos="127.41" arrivalSpeed="0.00" from="3i" to="4i"/>
    <trip id="carIn354:1" type="default" depart="539" departPos="0.00" arrivalPos="161.07" arrivalSpeed="0.00" from="4o" to="3o"/>
    <trip id="carIn100:1" type="default" depart="540" departPos="0.00" arrivalPos="125.17" arrivalSpeed="0.00" from="1o" to="1i"/>
    <trip id="carIn154:1" type="default" depart="540" departPos="243.00" arrivalPos="119.87" arrivalSpeed="0.00" from="2i" to="4o"/>
    <trip id="carIn270:1" type="default" depart="540" departPos="0.00" arrivalPos="124.82" arrivalSpeed="0.00" from="1o" to="1i"/>
    <trip id="carIn483:1" type="default" depart="540" departPos="243.00" arrivalPos="152.79" arrivalSpeed="0.00" from="4i" to="3o"/>
    <trip id="carIn498:1" type="default" depart="540" departPos="243.00" arrivalPos="85.99" arrivalSpeed="0.00" from="1i" to="1i"/>
    <trip id="carIn40:1" type="default" depart="541" departPos="243.00" arrivalPos="130.79" arrivalSpeed="0.00" from="4i" to="1i"/>
    <trip id="carIn142:1" type="default" depart="541" departPos="243.00" arrivalPos="131.50" arrivalSpeed="0.00" from="2i" to="1i"/>
    <trip id="carIn323:1" type="default" depart="541" departPos="243.00" arrivalPos="131.57" arrivalSpeed="0.00" from="1i" to="2i"/>
    <trip id="carIn371:1" type="default" depart="541" departPos="0.00" arrivalPos="154.85" arrivalSpeed="0.00" from="1o" to="2o"/>
    <trip id="carIn455:1" type="default" depart="541" departPos="0.00" arrivalPos="154.32" arrivalSpeed="0.00" from="3o" to="3o"/>
    <trip id="carIn8:1" type="default" depart="542" departPos="0.00" arrivalPos="152.73" arrivalSpeed="0.00" from="4o" to="3o"/>
    <trip id="carIn31:1" type="default" depart="542" departPos="0.00" arrivalPos="129.15" arrivalSpeed="0.00" from="4o" to="3i"/>
    <trip id="carIn73:1" type="default" depart="542" departPos="243.00" arrivalPos="133.78" arrivalSpeed="0.00" from="1i" to="2i"/>
    <trip id="carIn162:1" type="default" depart="542" departPos="0.00" arrivalPos="129.97" arrivalSpeed="0.00" from="2o" to="1i"/>
    <trip id="carIn185:1" type="default" depart="542" departPos="243.00" arrivalPos="90.55" arrivalSpeed="0.00" from="3i" to="3i"/>
    <trip id="carIn290:1" type="default" depart="542" departPos="0.00" arrivalPos="128.45" arrivalSpeed="0.00" from="1o" to="1i"/>
    <trip id="carIn452:1" type="default" depart="542" departPos="0.00" arrivalPos="129.67" arrivalSpeed="0.00" from="1o" to="3i"/>
    <trip id="carIn139:1" type="default" depart="543" departPos="0.00" arrivalPos="149.95" arrivalSpeed="0.00" from="3o" to="2o"/>
    <trip id="carIn155:1" type="default" depart="543" departPos="243.00" arrivalPos="136.20" arrivalSpeed="0.00" from="1i" to="4i"/>
    <trip id="carIn276:1" type="default" depart="543" departPos="243.00" arrivalPos="145.87" arrivalSpeed="0.00" from="3i" to="2o"/>
    <trip id="carIn479:1" type="default" depart="543" departPos="243.00" arrivalPos="137.98" arrivalSpeed="0.00" from="3i" to="4i"/>
    <trip id="carIn80:1" type="default" depart="544" departPos="0.00" arrivalPos="134.26" arrivalSpeed="0.00" from="1o" to="4i"/>
    <trip id="carIn322:1" type="default" depart="544" departPos="243.00" arrivalPos="187.61" arrivalSpeed="0.00" from="2i" to="2o"/>
    <trip id="carIn419:1" type="default" depart="544" departPos="0.00" arrivalPos="134.93" arrivalSpeed="0.00" from="4o" to="3i"/>
    <trip id="carIn439:1" type="default" depart="544" departPos="0.00" arrivalPos="148.78" arrivalSpeed="0.00" from="4o" to="1o"/>
    <trip id="carIn33:1" type="default" depart="545" departPos="243.00" arrivalPos="98.77" arrivalSpeed="0.00" from="4i" to="4i"/>
    <trip id="carIn60:1" type="default" depart="545" departPos="0.00" arrivalPos="136.00" arrivalSpeed="0.00" from="3o" to="2i"/>
    <trip id="carIn113:1" type="default" depart="545" departPos="243.00" arrivalPos="182.91" arrivalSpeed="0.00" from="4i" to="4o"/>
    <trip id="carIn161:1" type="default" depart="545" departPos="0.00" arrivalPos="144.79" arrivalSpeed="0.00" from="3o" to="2o"/>
    <trip id="carIn402:1" type="default" depart="545" departPos="0.00" arrivalPos="144.82" arrivalSpeed="0.00" from="1o" to="1o"/>
    <trip id="carIn485:1" type="default" depart="545" departPos="0.00" arrivalPos="146.11" arrivalSpeed="0.00" from="3o" to="1o"/>
    <trip id="carIn337:1" type="default" depart="546" departPos="243.00" arrivalPos="181.57" arrivalSpeed="0.00" from="1i" to="1o"/>
    <trip id="carIn367:1" type="default" depart="546" departPos="0.00" arrivalPos="139.97" arrivalSpeed="0.00" from="3o" to="1i"/>
    <trip id="carIn497:1" type="default" depart="546" departPos="243.00" arrivalPos="143.92" arrivalSpeed="0.00" from="3i" to="2i"/>
    <trip id="carIn10:1" type="default" depart="547" departPos="243.00" arrivalPos="103.02" arrivalSpeed="0.00" from="1i" to="1i"/>
    <trip id="carIn66:1" type="default" depart="547" departPos="0.00" arrivalPos="141.88" arrivalSpeed="0.00" from="3o" to="4i"/>
    <trip id="carIn130:1" type="default" depart="547" departPos="243.00" arrivalPos="102.40" arrivalSpeed="0.00" from="3i" to="3i"/>
    <trip id="carIn197:1" type="default" depart="547" departPos="243.00" arrivalPos="148.12" arrivalSpeed="0.00" from="2i" to="1i"/>
    <trip id="carIn359:1" type="default" depart="547" departPos="0.00" arrivalPos="139.70" arrivalSpeed="0.00" from="3o" to="3o"/>
    <trip id="carIn410:1" type="default" depart="547" departPos="243.00" arrivalPos="177.75" arrivalSpeed="0.00" from="3i" to="3o"/>
    <trip id="carIn213:1" type="default" depart="548" departPos="0.00" arrivalPos="144.32" arrivalSpeed="0.00" from="4o" to="4i"/>