<?xml version="1.0" encoding="UTF-8"?>

<!-- generated on Fri Apr 27 21:37:02 2018 by SUMO duarouter Version 0.32.0
<?xml version="1.0" encoding="UTF-8"?>

<configuration xmlns:xsi="http://www.w3.org/2001/XMLSchema-instance" xsi:noNamespaceSchemaLocation="http://sumo.dlr.de/xsd/duarouterConfiguration.xsd">

    <input>
        <net-file value="/mnt/c/my_programs/SCHOOL/MSD/GIT/core/tests/ImagineRIT/static/cross.net.xml"/>
        <route-files value="/mnt/c/my_programs/SCHOOL/MSD/GIT/core/tests/ImagineRIT/static/cross.trips.rou.xml"/>
    </input>

    <output>
        <output-file value="/mnt/c/my_programs/SCHOOL/MSD/GIT/core/tests/ImagineRIT/static/cross.rou.xml"/>
        <alternatives-output value="/mnt/c/my_programs/SCHOOL/MSD/GIT/core/tests/ImagineRIT/static/cross.rou.alt.xml"/>
    </output>

</configuration>
-->

<routes xmlns:xsi="http://www.w3.org/2001/XMLSchema-instance" xsi:noNamespaceSchemaLocation="http://sumo.dlr.de/xsd/routes_file.xsd">
    <vType id="default" vClass="passenger" color="red"/>
    <vehicle id="carIn112:1" type="default" depart="478.00" departPos="243.00" arrivalPos="280.86" arrivalSpeed="0.00">
        <route edges="1i 3o"/>
    </vehicle>
    <vehicle id="carIn39:1" type="default" depart="480.00" departPos="243.00" arrivalPos="275.03" arrivalSpeed="0.00">
        <route edges="2i 4o"/>
    </vehicle>
    <vehicle id="carIn48:1" type="default" depart="480.00" departPos="243.00" arrivalPos="5.64" arrivalSpeed="0.00">
        <route edges="3i 1o 1i"/>
    </vehicle>
    <vehicle id="carIn387:1" type="default" depart="480.00" departPos="243.00" arrivalPos="5.43" arrivalSpeed="0.00">
        <route edges="1i 3o 3i"/>
    </vehicle>
    <vehicle id="carIn287:1" type="default" depart="482.00" departPos="243.00" arrivalPos="270.88" arrivalSpeed="0.00">
        <route edges="2i 4o"/>
    </vehicle>
    <vehicle id="carIn224:1" type="default" depart="486.00" departPos="243.00" arrivalPos="21.49" arrivalSpeed="0.00">
        <route edges="4i 2o 2i"/>
    </vehicle>
    <vehicle id="carIn277:1" type="default" depart="486.00" departPos="243.00" arrivalPos="260.96" arrivalSpeed="0.00">
        <route edges="2i 4o"/>
    </vehicle>
    <vehicle id="carIn305:1" type="default" depart="486.00" departPos="243.00" arrivalPos="260.98" arrivalSpeed="0.00">
        <route edges="3i 1o"/>
    </vehicle>
    <vehicle id="carIn233:1" type="default" depart="487.00" departPos="243.00" arrivalPos="24.76" arrivalSpeed="0.00">
        <route edges="4i 2o 2i"/>
    </vehicle>
    <vehicle id="carIn61:1" type="default" depart="489.00" departPos="243.00" arrivalPos="29.72" arrivalSpeed="0.00">
        <route edges="2i 4o 4i"/>
    </vehicle>
    <vehicle id="carIn251:1" type="default" depart="489.00" departPos="243.00" arrivalPos="252.58" arrivalSpeed="0.00">
        <route edges="1i 3o"/>
    </vehicle>
    <vehicle id="carIn319:1" type="default" depart="489.00" departPos="243.00" arrivalPos="29.24" arrivalSpeed="0.00">
        <route edges="1i 3o 3i"/>
    </vehicle>
    <vehicle id="carIn328:1" type="default" depart="490.00" departPos="243.00" arrivalPos="31.70" arrivalSpeed="0.00">
        <route edges="3i 1o 1i"/>
    </vehicle>
    <vehicle id="carIn390:1" type="default" depart="491.00" departPos="243.00" arrivalPos="34.34" arrivalSpeed="0.00">
        <route edges="2i 4o 4i"/>
    </vehicle>
    <vehicle id="carIn476:1" type="default" depart="492.00" departPos="243.00" arrivalPos="0.56" arrivalSpeed="0.00">
        <route edges="3i 4o 4i"/>
    </vehicle>
    <vehicle id="carIn179:1" type="default" depart="493.00" departPos="243.00" arrivalPos="39.35" arrivalSpeed="0.00">
        <route edges="3i 1o 1i"/>
    </vehicle>
    <vehicle id="carIn257:1" type="default" depart="493.00" departPos="243.00" arrivalPos="5.28" arrivalSpeed="0.00">
        <route edges="3i 2o 2i"/>
    </vehicle>
    <vehicle id="carIn18:1" type="default" depart="494.00" departPos="243.00" arrivalPos="7.02" arrivalSpeed="0.00">
        <route edges="3i 4o 4i"/>
    </vehicle>
    <vehicle id="carIn348:1" type="default" depart="494.00" departPos="243.00" arrivalPos="275.46" arrivalSpeed="0.00">
        <route edges="1i 2o"/>
    </vehicle>
    <vehicle id="carIn385:1" type="default" depart="494.00" departPos="243.00" arrivalPos="238.43" arrivalSpeed="0.00">
        <route edges="1i 3o"/>
    </vehicle>
    <vehicle id="carIn19:1" type="default" depart="495.00" departPos="0.00" arrivalPos="5.25" arrivalSpeed="0.00">
        <route edges="3o 3i 1o 1i"/>
    </vehicle>
    <vehicle id="carIn49:1" type="default" depart="495.00" departPos="243.00" arrivalPos="10.61" arrivalSpeed="0.00">
        <route edges="1i 4o 4i"/>
    </vehicle>
    <vehicle id="carIn239:1" type="default" depart="495.00" departPos="243.00" arrivalPos="273.99" arrivalSpeed="0.00">
        <route edges="2i 1o"/>
    </vehicle>
    <vehicle id="carIn289:1" type="default" depart="495.00" departPos="243.00" arrivalPos="45.98" arrivalSpeed="0.00">
        <route edges="4i 2o 2i"/>
    </vehicle>
    <vehicle id="carIn374:1" type="default" depart="495.00" departPos="0.00" arrivalPos="276.43" arrivalSpeed="0.00">
        <route edges="1o 1i 4o"/>
    </vehicle>
    <vehicle id="carIn118:1" type="default" depart="496.00" departPos="243.00" arrivalPos="269.39" arrivalSpeed="0.00">
        <route edges="1i 2o"/>
    </vehicle>
    <vehicle id="carIn183:1" type="default" depart="496.00" departPos="243.00" arrivalPos="12.85" arrivalSpeed="0.00">
        <route edges="1i 4o 4i"/>
    </vehicle>
    <vehicle id="carIn195:1" type="default" depart="496.00" departPos="243.00" arrivalPos="271.18" arrivalSpeed="0.00">
        <route edges="1i 2o"/>
    </vehicle>
    <vehicle id="carIn253:1" type="default" depart="496.00" departPos="243.00" arrivalPos="270.12" arrivalSpeed="0.00">
        <route edges="2i 1o"/>
    </vehicle>
    <vehicle id="carIn258:1" type="default" depart="496.00" departPos="0.00" arrivalPos="272.17" arrivalSpeed="0.00">
        <route edges="1o"/>
    </vehicle>
    <vehicle id="carIn432:1" type="default" depart="496.00" departPos="0.00" arrivalPos="273.73" arrivalSpeed="0.00">
        <route edges="1o"/>
    </vehicle>
    <vehicle id="carIn111:1" type="default" depart="497.00" departPos="0.00" arrivalPos="269.05" arrivalSpeed="0.00">
        <route edges="3o 3i 4o"/>
    </vehicle>
    <vehicle id="carIn151:1" type="default" depart="497.00" departPos="0.00" arrivalPos="270.76" arrivalSpeed="0.00">
        <route edges="3o 3i 1o"/>
    </vehicle>
    <vehicle id="carIn417:1" type="default" depart="497.00" departPos="243.00" arrivalPos="231.02" arrivalSpeed="0.00">
        <route edges="3i 1o"/>
    </vehicle>
    <vehicle id="carIn335:1" type="default" depart="498.00" departPos="0.00" arrivalPos="267.99" arrivalSpeed="0.00">
        <route edges="2o 2i 1o"/>
    </vehicle>
    <vehicle id="carIn351:1" type="default" depart="498.00" departPos="243.00" arrivalPos="17.30" arrivalSpeed="0.00">
        <route edges="4i 3o 3i"/>
    </vehicle>
    <vehicle id="carIn79:1" type="default" depart="499.00" departPos="0.00" arrivalPos="16.38" arrivalSpeed="0.00">
        <route edges="2o 2i 3o 3i"/>
    </vehicle>
    <vehicle id="carIn194:1" type="default" depart="499.00" departPos="243.00" arrivalPos="55.20" arrivalSpeed="0.00">
        <route edges="2i 4o 4i"/>
    </vehicle>
    <vehicle id="carIn241:1" type="default" depart="499.00" departPos="0.00" arrivalPos="16.75" arrivalSpeed="0.00">
        <route edges="3o 3i 2o 2i"/>
    </vehicle>
    <vehicle id="carIn312:1" type="default" depart="499.00" departPos="243.00" arrivalPos="225.01" arrivalSpeed="0.00">
        <route edges="4i 2o"/>
    </vehicle>
    <vehicle id="carIn370:1" type="default" depart="499.00" departPos="0.00" arrivalPos="264.89" arrivalSpeed="0.00">
        <route edges="2o 2i 4o"/>
    </vehicle>
    <vehicle id="carIn413:1" type="default" depart="499.00" departPos="243.00" arrivalPos="262.77" arrivalSpeed="0.00">
        <route edges="4i 1o"/>
    </vehicle>
    <vehicle id="carIn122:1" type="default" depart="500.00" departPos="243.00" arrivalPos="58.62" arrivalSpeed="0.00">
        <route edges="4i 2o 2i"/>
    </vehicle>
    <vehicle id="carIn144:1" type="default" depart="500.00" departPos="243.00" arrivalPos="258.48" arrivalSpeed="0.00">
        <route edges="2i 1o"/>
    </vehicle>
    <vehicle id="carIn199:1" type="default" depart="500.00" departPos="0.00" arrivalPos="18.50" arrivalSpeed="0.00">
        <route edges="4o 4i"/>
    </vehicle>
    <vehicle id="carIn158:1" type="default" depart="501.00" departPos="243.00" arrivalPos="256.76" arrivalSpeed="0.00">
        <route edges="2i 3o"/>
    </vehicle>
    <vehicle id="carIn212:1" type="default" depart="501.00" departPos="243.00" arrivalPos="257.49" arrivalSpeed="0.00">
        <route edges="4i 1o"/>
    </vehicle>
    <vehicle id="carIn226:1" type="default" depart="501.00" departPos="0.00" arrivalPos="258.70" arrivalSpeed="0.00">
        <route edges="4o 4i 3o"/>
    </vehicle>
    <vehicle id="carIn279:1" type="default" depart="501.00" departPos="243.00" arrivalPos="256.17" arrivalSpeed="0.00">
        <route edges="4i 3o"/>
    </vehicle>
    <vehicle id="carIn314:1" type="default" depart="501.00" departPos="0.00" arrivalPos="259.88" arrivalSpeed="0.00">
        <route edges="2o 2i 1o"/>
    </vehicle>
    <vehicle id="carIn379:1" type="default" depart="501.00" departPos="0.00" arrivalPos="21.77" arrivalSpeed="0.00">
        <route edges="1o 1i 2o 2i"/>
    </vehicle>
    <vehicle id="carIn93:1" type="default" depart="502.00" departPos="0.00" arrivalPos="257.50" arrivalSpeed="0.00">
        <route edges="4o"/>
    </vehicle>
    <vehicle id="carIn293:1" type="default" depart="502.00" departPos="0.00" arrivalPos="258.36" arrivalSpeed="0.00">
        <route edges="1o 1i 2o"/>
    </vehicle>
    <vehicle id="carIn333:1" type="default" depart="502.00" departPos="0.00" arrivalPos="257.40" arrivalSpeed="0.00">
        <route edges="4o"/>
    </vehicle>
    <vehicle id="carIn407:1" type="default" depart="502.00" departPos="0.00" arrivalPos="25.66" arrivalSpeed="0.00">
        <route edges="3o 3i"/>
    </vehicle>
    <vehicle id="carIn464:1" type="default" depart="502.00" departPos="0.00" arrivalPos="256.25" arrivalSpeed="0.00">
        <route edges="4o"/>
    </vehicle>
    <vehicle id="carIn200:1" type="default" depart="503.00" departPos="243.00" arrivalPos="66.57" arrivalSpeed="0.00">
        <route edges="3i 1o 1i"/>
    </vehicle>
    <vehicle id="carIn221:1" type="default" depart="503.00" departPos="0.00" arrivalPos="26.58" arrivalSpeed="0.00">
        <route edges="1o 1i 3o 3i"/>
    </vehicle>
    <vehicle id="carIn313:1" type="default" depart="503.00" departPos="243.00" arrivalPos="252.38" arrivalSpeed="0.00">
        <route edges="1i 4o"/>
    </vehicle>
    <vehicle id="carIn150:1" type="default" depart="504.00" departPos="243.00" arrivalPos="247.87" arrivalSpeed="0.00">
        <route edges="2i 3o"/>
    </vehicle>
    <vehicle id="carIn453:1" type="default" depart="505.00" departPos="0.00" arrivalPos="31.40" arrivalSpeed="0.00">
        <route edges="4o 4i"/>
    </vehicle>
    <vehicle id="carIn124:1" type="default" depart="507.00" departPos="243.00" arrivalPos="241.18" arrivalSpeed="0.00">
        <route edges="4i 3o"/>
    </vehicle>
    <vehicle id="carIn273:1" type="default" depart="507.00" departPos="0.00" arrivalPos="36.85" arrivalSpeed="0.00">
        <route edges="1o 1i 3o 3i"/>
    </vehicle>
    <vehicle id="carIn346:1" type="default" depart="507.00" departPos="0.00" arrivalPos="37.31" arrivalSpeed="0.00">
        <route edges="1o 1i"/>
    </vehicle>
    <vehicle id="carIn15:1" type="default" depart="508.00" departPos="0.00" arrivalPos="242.02" arrivalSpeed="0.00">
        <route edges="2o 2i 3o"/>
    </vehicle>
    <vehicle id="carIn405:1" type="default" depart="508.00" departPos="0.00" arrivalPos="241.09" arrivalSpeed="0.00">
        <route edges="1o"/>
    </vehicle>
    <vehicle id="carIn174:1" type="default" depart="509.00" departPos="243.00" arrivalPos="234.82" arrivalSpeed="0.00">
        <route edges="4i 3o"/>
    </vehicle>
    <vehicle id="carIn465:1" type="default" depart="509.00" departPos="243.00" arrivalPos="236.99" arrivalSpeed="0.00">
        <route edges="3i 4o"/>
    </vehicle>
    <vehicle id="carIn172:1" type="default" depart="510.00" departPos="0.00" arrivalPos="237.16" arrivalSpeed="0.00">
        <route edges="2o 2i 1o"/>
    </vehicle>
    <vehicle id="carIn416:1" type="default" depart="510.00" departPos="0.00" arrivalPos="45.42" arrivalSpeed="0.00">
        <route edges="4o 4i 3o 3i"/>
    </vehicle>
    <vehicle id="carIn57:1" type="default" depart="511.00" departPos="0.00" arrivalPos="233.82" arrivalSpeed="0.00">
        <route edges="3o"/>
    </vehicle>
    <vehicle id="carIn76:1" type="default" depart="511.00" departPos="0.00" arrivalPos="232.90" arrivalSpeed="0.00">
        <route edges="4o 4i 1o"/>
    </vehicle>
    <vehicle id="carIn450:1" type="default" depart="511.00" departPos="243.00" arrivalPos="272.24" arrivalSpeed="0.00">
        <route edges="1i 1o"/>
    </vehicle>
    <vehicle id="carIn4:1" type="default" depart="512.00" departPos="243.00" arrivalPos="192.46" arrivalSpeed="0.00">
        <route edges="1i 3o"/>
    </vehicle>
    <vehicle id="carIn208:1" type="default" depart="512.00" departPos="243.00" arrivalPos="53.69" arrivalSpeed="0.00">
        <route edges="2i 3o 3i"/>
    </vehicle>
    <vehicle id="carIn211:1" type="default" depart="512.00" departPos="0.00" arrivalPos="51.72" arrivalSpeed="0.00">
        <route edges="4o 4i 3o 3i"/>
    </vehicle>
    <vehicle id="carIn56:1" type="default" depart="513.00" departPos="243.00" arrivalPos="15.34" arrivalSpeed="0.00">
        <route edges="1i"/>
    </vehicle>
    <vehicle id="carIn204:1" type="default" depart="514.00" departPos="243.00" arrivalPos="59.66" arrivalSpeed="0.00">
        <route edges="4i 3o 3i"/>
    </vehicle>
    <vehicle id="carIn248:1" type="default" depart="514.00" departPos="243.00" arrivalPos="60.23" arrivalSpeed="0.00">
        <route edges="4i 3o 3i"/>
    </vehicle>
    <vehicle id="carIn263:1" type="default" depart="514.00" departPos="243.00" arrivalPos="223.77" arrivalSpeed="0.00">
        <route edges="4i 1o"/>
    </vehicle>
    <vehicle id="carIn463:1" type="default" depart="514.00" departPos="243.00" arrivalPos="58.67" arrivalSpeed="0.00">
        <route edges="2i 3o 3i"/>
    </vehicle>
    <vehicle id="carIn490:1" type="default" depart="514.00" departPos="0.00" arrivalPos="55.49" arrivalSpeed="0.00">
        <route edges="2o 2i 4o 4i"/>
    </vehicle>
    <vehicle id="carIn96:1" type="default" depart="515.00" departPos="243.00" arrivalPos="20.32" arrivalSpeed="0.00">
        <route edges="2i"/>
    </vehicle>
    <vehicle id="carIn216:1" type="default" depart="515.00" departPos="243.00" arrivalPos="219.07" arrivalSpeed="0.00">
        <route edges="1i 4o"/>
    </vehicle>
    <vehicle id="carIn426:1" type="default" depart="515.00" departPos="0.00" arrivalPos="223.80" arrivalSpeed="0.00">
        <route edges="2o 2i 3o"/>
    </vehicle>
    <vehicle id="carIn300:1" type="default" depart="516.00" departPos="0.00" arrivalPos="220.09" arrivalSpeed="0.00">
        <route edges="3o 3i 1o"/>
    </vehicle>
    <vehicle id="carIn383:1" type="default" depart="516.00" departPos="243.00" arrivalPos="181.58" arrivalSpeed="0.00">
        <route edges="1i 3o"/>
    </vehicle>
    <vehicle id="carIn447:1" type="default" depart="516.00" departPos="0.00" arrivalPos="61.59" arrivalSpeed="0.00">
        <route edges="2o 2i 4o 4i"/>
    </vehicle>
    <vehicle id="carIn252:1" type="default" depart="517.00" departPos="0.00" arrivalPos="64.24" arrivalSpeed="0.00">
        <route edges="1o 1i 4o 4i"/>
    </vehicle>
    <vehicle id="carIn365:1" type="default" depart="517.00" departPos="243.00" arrivalPos="102.12" arrivalSpeed="0.00">
        <route edges="2i 4o 4i"/>
    </vehicle>
    <vehicle id="carIn380:1" type="default" depart="517.00" departPos="0.00" arrivalPos="63.43" arrivalSpeed="0.00">
        <route edges="2o 2i"/>
    </vehicle>
    <vehicle id="carIn459:1" type="default" depart="517.00" departPos="0.00" arrivalPos="217.23" arrivalSpeed="0.00">
        <route edges="3o 3i 2o"/>
    </vehicle>
    <vehicle id="carIn46:1" type="default" depart="518.00" departPos="0.00" arrivalPos="65.48" arrivalSpeed="0.00">
        <route edges="4o 4i"/>
    </vehicle>
    <vehicle id="carIn98:1" type="default" depart="518.00" departPos="0.00" arrivalPos="65.79" arrivalSpeed="0.00">
        <route edges="4o 4i 3o 3i"/>
    </vehicle>
    <vehicle id="carIn219:1" type="default" depart="518.00" departPos="0.00" arrivalPos="216.54" arrivalSpeed="0.00">
        <route edges="4o 4i 2o"/>
    </vehicle>
    <vehicle id="carIn261:1" type="default" depart="518.00" departPos="243.00" arrivalPos="104.79" arrivalSpeed="0.00">
        <route edges="3i 1o 1i"/>
    </vehicle>
    <vehicle id="carIn318:1" type="default" depart="518.00" departPos="243.00" arrivalPos="70.21" arrivalSpeed="0.00">
        <route edges="3i 4o 4i"/>
    </vehicle>
    <vehicle id="carIn16:1" type="default" depart="519.00" departPos="243.00" arrivalPos="108.31" arrivalSpeed="0.00">
        <route edges="3i 1o 1i"/>
    </vehicle>
    <vehicle id="carIn250:1" type="default" depart="519.00" departPos="243.00" arrivalPos="174.45" arrivalSpeed="0.00">
        <route edges="3i 1o"/>
    </vehicle>
    <vehicle id="carIn428:1" type="default" depart="519.00" departPos="243.00" arrivalPos="72.67" arrivalSpeed="0.00">
        <route edges="3i 2o 2i"/>
    </vehicle>
    <vehicle id="carIn331:1" type="default" depart="520.00" departPos="243.00" arrivalPos="75.72" arrivalSpeed="0.00">
        <route edges="3i 4o 4i"/>
    </vehicle>
    <vehicle id="carIn306:1" type="default" depart="521.00" departPos="243.00" arrivalPos="168.75" arrivalSpeed="0.00">
        <route edges="3i 1o"/>
    </vehicle>
    <vehicle id="carIn487:1" type="default" depart="521.00" departPos="0.00" arrivalPos="75.31" arrivalSpeed="0.00">
        <route edges="3o 3i 2o 2i"/>
    </vehicle>
    <vehicle id="carIn9:1" type="default" depart="522.00" departPos="0.00" arrivalPos="205.28" arrivalSpeed="0.00">
        <route edges="1o 1i 2o"/>
    </vehicle>
    <vehicle id="carIn50:1" type="default" depart="522.00" departPos="243.00" arrivalPos="165.41" arrivalSpeed="0.00">
        <route edges="3i 1o"/>
    </vehicle>
    <vehicle id="carIn152:1" type="default" depart="522.00" departPos="0.00" arrivalPos="77.61" arrivalSpeed="0.00">
        <route edges="2o 2i 3o 3i"/>
    </vehicle>
    <vehicle id="carIn238:1" type="default" depart="522.00" departPos="243.00" arrivalPos="200.35" arrivalSpeed="0.00">
        <route edges="3i 2o"/>
    </vehicle>
    <vehicle id="carIn350:1" type="default" depart="522.00" departPos="243.00" arrivalPos="81.34" arrivalSpeed="0.00">
        <route edges="4i 1o 1i"/>
    </vehicle>
    <vehicle id="carIn22:1" type="default" depart="523.00" departPos="0.00" arrivalPos="201.14" arrivalSpeed="0.00">
        <route edges="1o 1i 4o"/>
    </vehicle>
    <vehicle id="carIn146:1" type="default" depart="523.00" departPos="243.00" arrivalPos="197.76" arrivalSpeed="0.00">
        <route edges="4i 1o"/>
    </vehicle>
    <vehicle id="carIn153:1" type="default" depart="523.00" departPos="0.00" arrivalPos="79.53" arrivalSpeed="0.00">
        <route edges="3o 3i 2o 2i"/>
    </vehicle>
    <vehicle id="carIn166:1" type="default" depart="523.00" departPos="243.00" arrivalPos="162.49" arrivalSpeed="0.00">
        <route edges="1i 3o"/>
    </vehicle>
    <vehicle id="carIn202:1" type="default" depart="523.00" departPos="243.00" arrivalPos="39.46" arrivalSpeed="0.00">
        <route edges="2i"/>
    </vehicle>
    <vehicle id="carIn332:1" type="default" depart="523.00" departPos="243.00" arrivalPos="118.40" arrivalSpeed="0.00">
        <route edges="4i 2o 2i"/>
    </vehicle>
    <vehicle id="carIn114:1" type="default" depart="524.00" departPos="243.00" arrivalPos="197.26" arrivalSpeed="0.00">
        <route edges="3i 4o"/>
    </vehicle>
    <vehicle id="carIn147:1" type="default" depart="524.00" departPos="243.00" arrivalPos="121.37" arrivalSpeed="0.00">
        <route edges="2i 4o 4i"/>
    </vehicle>
    <vehicle id="carIn436:1" type="default" depart="524.00" departPos="243.00" arrivalPos="195.51" arrivalSpeed="0.00">
        <route edges="3i 4o"/>
    </vehicle>
    <vehicle id="carIn254:1" type="default" depart="525.00" departPos="243.00" arrivalPos="124.00" arrivalSpeed="0.00">
        <route edges="1i 3o 3i"/>
    </vehicle>
    <vehicle id="carIn352:1" type="default" depart="525.00" departPos="0.00" arrivalPos="85.77" arrivalSpeed="0.00">
        <route edges="3o 3i 2o 2i"/>
    </vehicle>
    <vehicle id="carIn47:1" type="default" depart="526.00" departPos="243.00" arrivalPos="191.14" arrivalSpeed="0.00">
        <route edges="4i 3o"/>
    </vehicle>
    <vehicle id="carIn77:1" type="default" depart="526.00" departPos="243.00" arrivalPos="92.23" arrivalSpeed="0.00">
        <route edges="4i 3o 3i"/>
    </vehicle>
    <vehicle id="carIn165:1" type="default" depart="526.00" departPos="243.00" arrivalPos="189.96" arrivalSpeed="0.00">
        <route edges="3i 2o"/>
    </vehicle>
    <vehicle id="carIn230:1" type="default" depart="526.00" departPos="0.00" arrivalPos="86.85" arrivalSpeed="0.00">
        <route edges="4o 4i 2o 2i"/>
    </vehicle>
    <vehicle id="carIn267:1" type="default" depart="526.00" departPos="0.00" arrivalPos="88.52" arrivalSpeed="0.00">
        <route edges="1o 1i 3o 3i"/>
    </vehicle>
    <vehicle id="carIn486:1" type="default" depart="526.00" departPos="243.00" arrivalPos="92.58" arrivalSpeed="0.00">
        <route edges="2i 1o 1i"/>
    </vehicle>
    <vehicle id="carIn491:1" type="default" depart="526.00" departPos="243.00" arrivalPos="91.72" arrivalSpeed="0.00">
        <route edges="4i 1o 1i"/>
    </vehicle>
    <vehicle id="carIn249:1" type="default" depart="527.00" departPos="0.00" arrivalPos="89.30" arrivalSpeed="0.00">
        <route edges="3o 3i 2o 2i"/>
    </vehicle>
    <vehicle id="carIn274:1" type="default" depart="527.00" departPos="0.00" arrivalPos="193.05" arrivalSpeed="0.00">
        <route edges="2o 2i 1o"/>
    </vehicle>
    <vehicle id="carIn295:1" type="default" depart="527.00" departPos="243.00" arrivalPos="51.85" arrivalSpeed="0.00">
        <route edges="2i"/>
    </vehicle>
    <vehicle id="carIn394:1" type="default" depart="528.00" departPos="243.00" arrivalPos="151.34" arrivalSpeed="0.00">
        <route edges="1i 3o"/>
    </vehicle>
    <vehicle id="carIn441:1" type="default" depart="528.00" departPos="0.00" arrivalPos="188.86" arrivalSpeed="0.00">
        <route edges="2o 2i 1o"/>
    </vehicle>
    <vehicle id="carIn121:1" type="default" depart="529.00" departPos="0.00" arrivalPos="186.26" arrivalSpeed="0.00">
        <route edges="3o 3i 1o"/>
    </vehicle>
    <vehicle id="carIn489:1" type="default" depart="529.00" departPos="243.00" arrivalPos="133.78" arrivalSpeed="0.00">
        <route edges="1i 3o 3i"/>
    </vehicle>
    <vehicle id="carIn20:1" type="default" depart="530.00" departPos="243.00" arrivalPos="144.40" arrivalSpeed="0.00">
        <route edges="2i 4o"/>
    </vehicle>
    <vehicle id="carIn398:1" type="default" depart="530.00" departPos="0.00" arrivalPos="184.02" arrivalSpeed="0.00">
        <route edges="4o 4i 1o"/>
    </vehicle>
    <vehicle id="carIn415:1" type="default" depart="530.00" departPos="243.00" arrivalPos="223.52" arrivalSpeed="0.00">
        <route edges="2i 2o"/>
    </vehicle>
    <vehicle id="carIn156:1" type="default" depart="531.00" departPos="243.00" arrivalPos="177.94" arrivalSpeed="0.00">
        <route edges="2i 1o"/>
    </vehicle>
    <vehicle id="carIn170:1" type="default" depart="531.00" departPos="243.00" arrivalPos="178.46" arrivalSpeed="0.00">
        <route edges="1i 4o"/>
    </vehicle>
    <vehicle id="carIn205:1" type="default" depart="531.00" departPos="0.00" arrivalPos="180.76" arrivalSpeed="0.00">
        <route edges="4o 4i 1o"/>
    </vehicle>
    <vehicle id="carIn245:1" type="default" depart="531.00" departPos="0.00" arrivalPos="100.27" arrivalSpeed="0.00">
        <route edges="3o 3i 2o 2i"/>
    </vehicle>
    <vehicle id="carIn303:1" type="default" depart="531.00" departPos="0.00" arrivalPos="101.68" arrivalSpeed="0.00">
        <route edges="1o 1i 4o 4i"/>
    </vehicle>
    <vehicle id="carIn400:1" type="default" depart="531.00" departPos="243.00" arrivalPos="104.01" arrivalSpeed="0.00">
        <route edges="2i 3o 3i"/>
    </vehicle>
    <vehicle id="carIn406:1" type="default" depart="531.00" departPos="243.00" arrivalPos="177.92" arrivalSpeed="0.00">
        <route edges="4i 1o"/>
    </vehicle>
    <vehicle id="carIn164:1" type="default" depart="532.00" departPos="243.00" arrivalPos="175.84" arrivalSpeed="0.00">
        <route edges="2i 3o"/>
    </vehicle>
    <vehicle id="carIn187:1" type="default" depart="532.00" departPos="243.00" arrivalPos="175.80" arrivalSpeed="0.00">
        <route edges="1i 4o"/>
    </vehicle>
    <vehicle id="carIn201:1" type="default" depart="532.00" departPos="0.00" arrivalPos="178.29" arrivalSpeed="0.00">
        <route edges="2o 2i 4o"/>
    </vehicle>
    <vehicle id="carIn237:1" type="default" depart="532.00" departPos="243.00" arrivalPos="108.53" arrivalSpeed="0.00">
        <route edges="4i 1o 1i"/>
    </vehicle>
    <vehicle id="carIn326:1" type="default" depart="532.00" departPos="243.00" arrivalPos="138.61" arrivalSpeed="0.00">
        <route edges="3i 1o"/>
    </vehicle>
    <vehicle id="carIn336:1" type="default" depart="532.00" departPos="243.00" arrivalPos="173.50" arrivalSpeed="0.00">
        <route edges="2i 3o"/>
    </vehicle>
    <vehicle id="carIn355:1" type="default" depart="532.00" departPos="243.00" arrivalPos="175.91" arrivalSpeed="0.00">
        <route edges="1i 4o"/>
    </vehicle>
    <vehicle id="carIn457:1" type="default" depart="532.00" departPos="0.00" arrivalPos="179.66" arrivalSpeed="0.00">
        <route edges="2o"/>
    </vehicle>
    <vehicle id="carIn495:1" type="default" depart="532.00" departPos="0.00" arrivalPos="103.56" arrivalSpeed="0.00">
        <route edges="1o 1i"/>
    </vehicle>
    <vehicle id="carIn99:1" type="default" depart="533.00" departPos="243.00" arrivalPos="214.72" arrivalSpeed="0.00">
        <route edges="3i 3o"/>
    </vehicle>
    <vehicle id="carIn298:1" type="default" depart="533.00" departPos="243.00" arrivalPos="136.68" arrivalSpeed="0.00">
        <route edges="2i 4o"/>
    </vehicle>
    <vehicle id="carIn302:1" type="default" depart="533.00" departPos="0.00" arrivalPos="105.02" arrivalSpeed="0.00">
        <route edges="4o 4i 2o 2i"/>
    </vehicle>
    <vehicle id="carIn401:1" type="default" depart="533.00" departPos="243.00" arrivalPos="136.19" arrivalSpeed="0.00">
        <route edges="1i 3o"/>
    </vehicle>
    <vehicle id="carIn6:1" type="default" depart="534.00" departPos="0.00" arrivalPos="174.56" arrivalSpeed="0.00">
        <route edges="4o"/>
    </vehicle>
    <vehicle id="carIn286:1" type="default" depart="534.00" departPos="243.00" arrivalPos="112.25" arrivalSpeed="0.00">
        <route edges="2i 1o 1i"/>
    </vehicle>
    <vehicle id="carIn317:1" type="default" depart="534.00" departPos="0.00" arrivalPos="107.35" arrivalSpeed="0.00">
        <route edges="3o 3i"/>
    </vehicle>
    <vehicle id="carIn324:1" type="default" depart="534.00" departPos="0.00" arrivalPos="108.90" arrivalSpeed="0.00">
        <route edges="3o 3i 4o 4i"/>
    </vehicle>
    <vehicle id="carIn389:1" type="default" depart="534.00" departPos="0.00" arrivalPos="174.35" arrivalSpeed="0.00">
        <route edges="3o 3i 1o"/>
    </vehicle>
    <vehicle id="carIn456:1" type="default" depart="534.00" departPos="0.00" arrivalPos="107.95" arrivalSpeed="0.00">
        <route edges="1o 1i 3o 3i"/>
    </vehicle>
    <vehicle id="carIn425:1" type="default" depart="535.00" departPos="243.00" arrivalPos="132.76" arrivalSpeed="0.00">
        <route edges="4i 2o"/>
    </vehicle>
    <vehicle id="carIn103:1" type="default" depart="536.00" departPos="243.00" arrivalPos="128.97" arrivalSpeed="0.00">
        <route edges="3i 1o"/>
    </vehicle>
    <vehicle id="carIn108:1" type="default" depart="536.00" departPos="243.00" arrivalPos="208.34" arrivalSpeed="0.00">
        <route edges="2i 2o"/>
    </vehicle>
    <vehicle id="carIn127:1" type="default" depart="536.00" departPos="243.00" arrivalPos="162.80" arrivalSpeed="0.00">
        <route edges="1i 2o"/>
    </vehicle>
    <vehicle id="carIn133:1" type="default" depart="536.00" departPos="0.00" arrivalPos="168.22" arrivalSpeed="0.00">
        <route edges="2o 2i 4o"/>
    </vehicle>
    <vehicle id="carIn169:1" type="default" depart="536.00" departPos="0.00" arrivalPos="168.58" arrivalSpeed="0.00">
        <route edges="3o 3i 2o"/>
    </vehicle>
    <vehicle id="carIn292:1" type="default" depart="536.00" departPos="0.00" arrivalPos="168.95" arrivalSpeed="0.00">
        <route edges="4o 4i 3o"/>
    </vehicle>
    <vehicle id="carIn437:1" type="default" depart="536.00" departPos="243.00" arrivalPos="119.26" arrivalSpeed="0.00">
        <route edges="2i 1o 1i"/>
    </vehicle>
    <vehicle id="carIn72:1" type="default" depart="537.00" departPos="243.00" arrivalPos="160.03" arrivalSpeed="0.00">
        <route edges="2i 3o"/>
    </vehicle>
    <vehicle id="carIn422:1" type="default" depart="537.00" departPos="243.00" arrivalPos="205.14" arrivalSpeed="0.00">
        <route edges="1i 1o"/>
    </vehicle>
    <vehicle id="carIn52:1" type="default" depart="538.00" departPos="243.00" arrivalPos="158.74" arrivalSpeed="0.00">
        <route edges="3i 1o 1i"/>
    </vehicle>
    <vehicle id="carIn433:1" type="default" depart="538.00" departPos="243.00" arrivalPos="158.53" arrivalSpeed="0.00">
        <route edges="3i 1o 1i"/>
    </vehicle>