<?xml version="1.0" encoding="UTF-8"?>

<!-- generated on 03/21/18 14:39:40 by SUMO activitygen Version 0.31.0
<?xml version="1.0" encoding="UTF-8"?>

<configuration xmlns:xsi="http://www.w3.org/2001/XMLSchema-instance" xsi:noNamespaceSchemaLocation="http://sumo.dlr.de/xsd/activitygenConfiguration.xsd">

    <input>
        <net-file value="cross.net.xml"/>
        <stat-file value="hello.stat.xml"/>
    </input>

    <output>
        <output-file value="cross_ag.trips.rou.xml"/>
    </output>

    <random_number>
        <random value="true"/>
    </random_number>

</configuration>
-->

<routes xmlns:xsi="http://www.w3.org/2001/XMLSchema-instance" xsi:noNamespaceSchemaLocation="http://sumo.dlr.de/xsd/routes_file.xsd">
    <vType id="default" vClass="passenger" color="red"/>
    <vType id="random" vClass="passenger" color="blue"/>
    <vType id="bus" vClass="bus" color="green"/>

    <trip id="carIn30:1" type="default" depart="72" departPos="0.00" arrivalPos="451.12" arrivalSpeed="0.00" from="1o" to="2o"/>
    <trip id="carIn17:1" type="default" depart="112" departPos="243.67" arrivalPos="47.69" arrivalSpeed="0.00" from="4i" to="2i"/>
    <trip id="h288c1:1" type="default" depart="143" departPos="329.84" arrivalPos="243.69" arrivalSpeed="0.00" from="3o" to="4i"/>
    <trip id="carIn124:1" type="default" depart="165" departPos="0.00" arrivalPos="469.59" arrivalSpeed="0.00" from="2o" to="3o"/>
    <trip id="h73c1:1" type="default" depart="166" departPos="93.11" arrivalPos="466.79" arrivalSpeed="0.00" from="4i" to="3o"/>
    <trip id="h365c1:1" type="default" depart="170" departPos="195.61" arrivalPos="280.80" arrivalSpeed="0.00" from="2i" to="3o"/>
    <trip id="h70c1:1" type="default" depart="179" departPos="35.76" arrivalPos="224.85" arrivalSpeed="0.00" from="4i" to="3i"/>
    <trip id="carIn149:1" type="default" depart="183" departPos="243.67" arrivalPos="82.27" arrivalSpeed="0.00" from="2i" to="3i"/>
    <trip id="randUni82:1" type="random" depart="185" departPos="175.30" arrivalPos="317.38" arrivalSpeed="0.00" from="1is" to="2o"/>
    <trip id="h268c1:1" type="default" depart="205" departPos="412.03" arrivalPos="403.21" arrivalSpeed="0.00" from="3o" to="4o"/>
    <trip id="h54c1:1" type="default" depart="209" departPos="97.32" arrivalPos="416.77" arrivalSpeed="0.00" from="4i" to="2i"/>
    <trip id="h9c1:1" type="default" depart="214" departPos="56.01" arrivalPos="53.21" arrivalSpeed="0.00" from="4i" to="2o"/>
    <trip id="h241c2:1" type="default" depart="215" departPos="8.54" arrivalPos="458.73" arrivalSpeed="0.00" from="3i" to="2o"/>
    <trip id="carIn21:1" type="default" depart="215" departPos="0.00" arrivalPos="155.11" arrivalSpeed="0.00" from="2o" to="3o"/>
    <trip id="carIn95:1" type="default" depart="217" departPos="243.67" arrivalPos="320.97" arrivalSpeed="0.00" from="1i" to="4o"/>
    <trip id="h187c1:1" type="default" depart="229" departPos="98.83" arrivalPos="415.79" arrivalSpeed="0.00" from="3i" to="4i"/>
    <trip id="h367c1:1" type="default" depart="231" departPos="10.57" arrivalPos="243.67" arrivalSpeed="0.00" from="2i" to="3i"/>
    <trip id="carIn44:1" type="default" depart="249" departPos="243.67" arrivalPos="289.70" arrivalSpeed="0.00" from="4i" to="3o"/>
    <trip id="carIn156:1" type="default" depart="259" departPos="243.67" arrivalPos="424.30" arrivalSpeed="0.00" from="4i" to="2o"/>
    <trip id="h497c1:1" type="default" depart="261" departPos="36.91" arrivalPos="462.32" arrivalSpeed="0.00" from="1o" to="3o"/>
    <trip id="carIn70:1" type="default" depart="269" departPos="0.00" arrivalPos="370.35" arrivalSpeed="0.00" from="1o" to="3o"/>
    <trip id="h221c1:1" type="default" depart="270" departPos="196.24" arrivalPos="279.01" arrivalSpeed="0.00" from="3i" to="2o"/>
    <trip id="carIn162:1" type="default" depart="270" departPos="243.67" arrivalPos="439.91" arrivalSpeed="0.00" from="2i" to="3o"/>
    <trip id="h258c1:1" type="default" depart="276" departPos="324.03" arrivalPos="437.66" arrivalSpeed="0.00" from="3o" to="4o"/>
    <trip id="carIn61:1" type="default" depart="277" departPos="243.67" arrivalPos="243.67" arrivalSpeed="0.00" from="3i" to="1i"/>
    <trip id="carIn37:1" type="default" depart="279" departPos="243.67" arrivalPos="184.83" arrivalSpeed="0.00" from="3i" to="2o"/>
    <trip id="h24c1:1" type="default" depart="280" departPos="388.34" arrivalPos="403.49" arrivalSpeed="0.00" from="4i" to="3o"/>
    <trip id="carIn179:1" type="default" depart="281" departPos="0.00" arrivalPos="174.04" arrivalSpeed="0.00" from="1o" to="4i"/>
    <trip id="h217c1:1" type="default" depart="282" departPos="144.83" arrivalPos="22.68" arrivalSpeed="0.00" from="3i" to="1o"/>
    <trip id="h263c1:1" type="default" depart="282" departPos="360.74" arrivalPos="242.63" arrivalSpeed="0.00" from="3o" to="2i"/>
    <trip id="carIn7:1" type="default" depart="285" departPos="0.00" arrivalPos="243.67" arrivalSpeed="0.00" from="4o" to="1i"/>
    <trip id="carIn93:1" type="default" depart="285" departPos="243.67" arrivalPos="97.51" arrivalSpeed="0.00" from="4i" to="3i"/>
    <trip id="h287c1:1" type="default" depart="287" departPos="247.99" arrivalPos="165.08" arrivalSpeed="0.00" from="3o" to="2i"/>
    <trip id="carIn115:1" type="default" depart="287" departPos="243.67" arrivalPos="243.67" arrivalSpeed="0.00" from="3i" to="4i"/>
    <trip id="carIn19:1" type="default" depart="288" departPos="243.67" arrivalPos="433.89" arrivalSpeed="0.00" from="1i" to="4i"/>
    <trip id="h356c1:1" type="default" depart="289" departPos="425.82" arrivalPos="417.52" arrivalSpeed="0.00" from="2i" to="3o"/>
    <trip id="h308c2:1" type="default" depart="293" departPos="389.79" arrivalPos="101.17" arrivalSpeed="0.00" from="3o" to="4i"/>
    <trip id="carIn55:1" type="default" depart="293" departPos="243.67" arrivalPos="196.58" arrivalSpeed="0.00" from="1i" to="4o"/>
    <trip id="h77c1:1" type="default" depart="294" departPos="256.28" arrivalPos="460.86" arrivalSpeed="0.00" from="4i" to="3o"/>
    <trip id="carIn181:1" type="default" depart="297" departPos="243.67" arrivalPos="133.84" arrivalSpeed="0.00" from="3i" to="4i"/>
    <trip id="h235c1:1" type="default" depart="300" departPos="59.43" arrivalPos="106.38" arrivalSpeed="0.00" from="3i" to="4o"/>
    <trip id="h256c1:1" type="default" depart="302" departPos="390.31" arrivalPos="420.74" arrivalSpeed="0.00" from="3o" to="4o"/>
    <trip id="carIn187:1" type="default" depart="302" departPos="243.67" arrivalPos="359.94" arrivalSpeed="0.00" from="3i" to="2i"/>
    <trip id="h264c1:1" type="default" depart="303" departPos="326.76" arrivalPos="377.39" arrivalSpeed="0.00" from="3o" to="4i"/>
    <trip id="h296c2:1" type="default" depart="303" departPos="237.93" arrivalPos="24.10" arrivalSpeed="0.00" from="3o" to="4i"/>
    <trip id="carIn143:1" type="default" depart="304" departPos="0.00" arrivalPos="432.87" arrivalSpeed="0.00" from="2o" to="4o"/>
    <trip id="randUni115:1" type="random" depart="304" departPos="381.68" arrivalPos="307.28" arrivalSpeed="0.00" from="4o" to="1is"/>
    <trip id="carIn135:1" type="default" depart="305" departPos="243.67" arrivalPos="82.60" arrivalSpeed="0.00" from="4i" to="2i"/>
    <trip id="h185c1:1" type="default" depart="307" departPos="110.98" arrivalPos="348.04" arrivalSpeed="0.00" from="3i" to="4o"/>
    <trip id="h228c1:1" type="default" depart="308" departPos="41.47" arrivalPos="210.21" arrivalSpeed="0.00" from="3i" to="2o"/>
    <trip id="carIn152:1" type="default" depart="311" departPos="243.67" arrivalPos="98.46" arrivalSpeed="0.00" from="1i" to="4o"/>
    <trip id="h97c1:1" type="default" depart="312" departPos="479.41" arrivalPos="426.28" arrivalSpeed="0.00" from="4o" to="3o"/>
    <trip id="h439c1:1" type="default" depart="312" departPos="379.32" arrivalPos="194.59" arrivalSpeed="0.00" from="2o" to="4o"/>
    <trip id="h249c1:1" type="default" depart="313" departPos="373.33" arrivalPos="243.67" arrivalSpeed="0.00" from="3o" to="4i"/>
    <trip id="carIn109:1" type="default" depart="313" departPos="243.67" arrivalPos="262.60" arrivalSpeed="0.00" from="3i" to="4i"/>
    <trip id="h203c1:1" type="default" depart="315" departPos="413.67" arrivalPos="202.80" arrivalSpeed="0.00" from="3i" to="4i"/>
    <trip id="carIn189:1" type="default" depart="315" departPos="243.67" arrivalPos="95.41" arrivalSpeed="0.00" from="3i" to="2i"/>
    <trip id="h43c1:1" type="default" depart="323" departPos="463.57" arrivalPos="57.81" arrivalSpeed="0.00" from="4i" to="3i"/>
    <trip id="h465c1:1" type="default" depart="323" departPos="432.30" arrivalPos="445.59" arrivalSpeed="0.00" from="2o" to="3o"/>
    <trip id="carIn114:1" type="default" depart="323" departPos="243.67" arrivalPos="345.64" arrivalSpeed="0.00" from="3i" to="2o"/>
    <trip id="h173c1:1" type="default" depart="325" departPos="28.05" arrivalPos="286.19" arrivalSpeed="0.00" from="3i" to="2i"/>
    <trip id="h183c1:1" type="default" depart="325" departPos="18.87" arrivalPos="245.43" arrivalSpeed="0.00" from="3i" to="2o"/>
    <trip id="h229c1:1" type="default" depart="326" departPos="260.45" arrivalPos="364.48" arrivalSpeed="0.00" from="3i" to="4o"/>
    <trip id="h259c1:1" type="default" depart="327" departPos="281.88" arrivalPos="451.49" arrivalSpeed="0.00" from="3o" to="4o"/>
    <trip id="carIn66:1" type="default" depart="327" departPos="0.00" arrivalPos="25.32" arrivalSpeed="0.00" from="2o" to="3i"/>
    <trip id="carIn118:1" type="default" depart="330" departPos="0.00" arrivalPos="126.71" arrivalSpeed="0.00" from="3o" to="3i"/>
    <trip id="h296c1:1" type="default" depart="332" departPos="237.93" arrivalPos="466.97" arrivalSpeed="0.00" from="3o" to="4o"/>
    <trip id="h389c1:1" type="default" depart="332" departPos="336.98" arrivalPos="38.60" arrivalSpeed="0.00" from="2i" to="3i"/>
    <trip id="h124c1:1" type="default" depart="333" departPos="194.31" arrivalPos="375.18" arrivalSpeed="0.00" from="4o" to="2o"/>
    <trip id="carIn2:1" type="default" depart="333" departPos="243.67" arrivalPos="130.47" arrivalSpeed="0.00" from="4i" to="4o"/>
    <trip id="h462c1:1" type="default" depart="335" departPos="478.58" arrivalPos="374.55" arrivalSpeed="0.00" from="2o" to="3o"/>
    <trip id="h211c1:1" type="default" depart="338" departPos="2.26" arrivalPos="254.95" arrivalSpeed="0.00" from="3i" to="4o"/>
    <trip id="h277c2:1" type="default" depart="340" departPos="420.79" arrivalPos="133.96" arrivalSpeed="0.00" from="3o" to="4i"/>
    <trip id="h277c1:1" type="default" depart="343" departPos="420.79" arrivalPos="243.67" arrivalSpeed="0.00" from="3o" to="4i"/>
    <trip id="h213c1:1" type="default" depart="348" departPos="7.13" arrivalPos="460.01" arrivalSpeed="0.00" from="3i" to="2o"/>
    <trip id="h398c1:1" type="default" depart="350" departPos="210.00" arrivalPos="182.81" arrivalSpeed="0.00" from="2i" to="3i"/>
    <trip id="carIn64:1" type="default" depart="350" departPos="243.67" arrivalPos="60.15" arrivalSpeed="0.00" from="3i" to="2o"/>
    <trip id="carIn72:1" type="default" depart="350" departPos="243.67" arrivalPos="281.93" arrivalSpeed="0.00" from="2i" to="3i"/>
    <trip id="carIn157:1" type="default" depart="350" departPos="0.00" arrivalPos="411.46" arrivalSpeed="0.00" from="4o" to="2o"/>
    <trip id="h236c1:1" type="default" depart="351" departPos="256.47" arrivalPos="347.75" arrivalSpeed="0.00" from="3i" to="4i"/>
    <trip id="carIn98:1" type="default" depart="351" departPos="243.67" arrivalPos="269.82" arrivalSpeed="0.00" from="3i" to="4o"/>
    <trip id="h300c1:1" type="default" depart="352" departPos="311.52" arrivalPos="460.70" arrivalSpeed="0.00" from="3o" to="4o"/>
    <trip id="carIn116:1" type="default" depart="352" departPos="243.67" arrivalPos="408.23" arrivalSpeed="0.00" from="1i" to="4i"/>
    <trip id="h49c1:1" type="default" depart="353" departPos="212.07" arrivalPos="455.26" arrivalSpeed="0.00" from="4i" to="2o"/>
    <trip id="h339c1:1" type="default" depart="353" departPos="66.15" arrivalPos="303.02" arrivalSpeed="0.00" from="2i" to="3o"/>
    <trip id="h112c1:1" type="default" depart="354" departPos="14.63" arrivalPos="135.51" arrivalSpeed="0.00" from="4o" to="3i"/>
    <trip id="carIn171:1" type="default" depart="355" departPos="0.00" arrivalPos="291.16" arrivalSpeed="0.00" from="3o" to="3o"/>
    <trip id="h484c1:1" type="default" depart="356" departPos="45.65" arrivalPos="370.32" arrivalSpeed="0.00" from="2o" to="3o"/>
    <trip id="carIn194:1" type="default" depart="356" departPos="243.67" arrivalPos="449.97" arrivalSpeed="0.00" from="4i" to="3o"/>
    <trip id="carIn183:1" type="default" depart="358" departPos="243.67" arrivalPos="340.60" arrivalSpeed="0.00" from="4i" to="3o"/>
    <trip id="h40c1:1" type="default" depart="363" departPos="269.16" arrivalPos="243.67" arrivalSpeed="0.00" from="4i" to="1i"/>
    <trip id="carIn25:1" type="default" depart="364" departPos="243.67" arrivalPos="89.85" arrivalSpeed="0.00" from="1i" to="3i"/>
    <trip id="h359c1:1" type="default" depart="365" departPos="411.15" arrivalPos="451.11" arrivalSpeed="0.00" from="2i" to="2o"/>
    <trip id="h157c1:1" type="default" depart="370" departPos="368.96" arrivalPos="135.78" arrivalSpeed="0.00" from="4o" to="3i"/>
    <trip id="h440c1:1" type="default" depart="370" departPos="280.69" arrivalPos="471.15" arrivalSpeed="0.00" from="2o" to="3o"/>
    <trip id="h64c1:1" type="default" depart="377" departPos="143.90" arrivalPos="221.52" arrivalSpeed="0.00" from="4i" to="3o"/>
    <trip id="h317c1:1" type="default" depart="377" departPos="206.10" arrivalPos="205.50" arrivalSpeed="0.00" from="3o" to="4i"/>
    <trip id="h58c1:1" type="default" depart="378" departPos="47.71" arrivalPos="296.98" arrivalSpeed="0.00" from="4i" to="2o"/>
    <trip id="carIn129:1" type="default" depart="378" departPos="0.00" arrivalPos="118.91" arrivalSpeed="0.00" from="4o" to="2i"/>
    <trip id="carIn88:1" type="default" depart="379" departPos="0.00" arrivalPos="150.75" arrivalSpeed="0.00" from="1o" to="3i"/>
    <trip id="carIn40:1" type="default" depart="382" departPos="243.67" arrivalPos="387.46" arrivalSpeed="0.00" from="4i" to="2o"/>
    <trip id="carIn164:1" type="default" depart="382" departPos="0.00" arrivalPos="418.05" arrivalSpeed="0.00" from="2o" to="3o"/>
    <trip id="h120c1:1" type="default" depart="383" departPos="264.31" arrivalPos="298.82" arrivalSpeed="0.00" from="4o" to="2o"/>
    <trip id="h59c1:1" type="default" depart="384" departPos="270.09" arrivalPos="243.67" arrivalSpeed="0.00" from="4i" to="3i"/>
    <trip id="h241c1:1" type="default" depart="385" departPos="8.54" arrivalPos="246.60" arrivalSpeed="0.00" from="3i" to="2o"/>
    <trip id="carIn3:1" type="default" depart="386" departPos="243.67" arrivalPos="481.79" arrivalSpeed="0.00" from="2i" to="3o"/>
    <trip id="carIn81:1" type="default" depart="386" departPos="243.67" arrivalPos="413.87" arrivalSpeed="0.00" from="1i" to="3o"/>
    <trip id="carIn71:1" type="default" depart="388" departPos="243.67" arrivalPos="243.67" arrivalSpeed="0.00" from="1i" to="4i"/>
    <trip id="carIn166:1" type="default" depart="388" departPos="0.00" arrivalPos="357.91" arrivalSpeed="0.00" from="2o" to="3i"/>
    <trip id="h83c1:1" type="default" depart="389" departPos="295.53" arrivalPos="222.23" arrivalSpeed="0.00" from="4o" to="3o"/>
    <trip id="h214c1:1" type="default" depart="389" departPos="83.92" arrivalPos="243.67" arrivalSpeed="0.00" from="3i" to="1i"/>
    <trip id="h403c1:1" type="default" depart="389" departPos="28.06" arrivalPos="474.75" arrivalSpeed="0.00" from="2i" to="3o"/>
    <trip id="carIn107:1" type="default" depart="389" departPos="243.67" arrivalPos="293.27" arrivalSpeed="0.00" from="2i" to="3o"/>
    <trip id="h274c1:1" type="default" depart="394" departPos="418.30" arrivalPos="44.24" arrivalSpeed="0.00" from="3o" to="4o"/>
    <trip id="carIn57:1" type="default" depart="394" departPos="0.00" arrivalPos="274.03" arrivalSpeed="0.00" from="4o" to="2i"/>
    <trip id="h134c1:1" type="default" depart="395" departPos="434.99" arrivalPos="325.08" arrivalSpeed="0.00" from="4o" to="3i"/>
    <trip id="h4c1:1" type="default" depart="396" departPos="292.61" arrivalPos="243.67" arrivalSpeed="0.00" from="4i" to="3i"/>
    <trip id="h401c1:1" type="default" depart="396" departPos="173.31" arrivalPos="45.40" arrivalSpeed="0.00" from="2i" to="3i"/>
    <trip id="carIn13:1" type="default" depart="396" departPos="0.00" arrivalPos="317.78" arrivalSpeed="0.00" from="2o" to="4o"/>
    <trip id="carIn39:1" type="default" depart="397" departPos="0.00" arrivalPos="356.78" arrivalSpeed="0.00" from="3o" to="4o"/>
    <trip id="carIn186:1" type="default" depart="397" departPos="243.67" arrivalPos="25.37" arrivalSpeed="0.00" from="2i" to="3i"/>
    <trip id="h15c1:1" type="default" depart="399" departPos="183.24" arrivalPos="243.67" arrivalSpeed="0.00" from="4i" to="2i"/>
    <trip id="h105c1:1" type="default" depart="399" departPos="383.46" arrivalPos="48.88" arrivalSpeed="0.00" from="4o" to="3i"/>
    <trip id="h370c1:1" type="default" depart="399" departPos="143.67" arrivalPos="476.60" arrivalSpeed="0.00" from="2i" to="4o"/>
    <trip id="carIn15:1" type="default" depart="403" departPos="0.00" arrivalPos="312.72" arrivalSpeed="0.00" from="4o" to="2o"/>
    <trip id="h424c1:1" type="default" depart="405" departPos="460.35" arrivalPos="208.33" arrivalSpeed="0.00" from="2o" to="3o"/>
    <trip id="carIn96:1" type="default" depart="407" departPos="243.67" arrivalPos="273.22" arrivalSpeed="0.00" from="1i" to="3i"/>
    <trip id="carIn18:1" type="default" depart="408" departPos="243.67" arrivalPos="338.86" arrivalSpeed="0.00" from="3i" to="3o"/>
    <trip id="carIn75:1" type="default" depart="408" departPos="243.67" arrivalPos="257.96" arrivalSpeed="0.00" from="4i" to="4o"/>
    <trip id="carIn137:1" type="default" depart="408" departPos="0.00" arrivalPos="146.45" arrivalSpeed="0.00" from="3o" to="3o"/>
    <trip id="h219c1:1" type="default" depart="409" departPos="4.90" arrivalPos="407.29" arrivalSpeed="0.00" from="3i" to="2i"/>
    <trip id="h394c1:1" type="default" depart="409" departPos="26.31" arrivalPos="243.67" arrivalSpeed="0.00" from="2i" to="3i"/>
    <trip id="carIn131:1" type="default" depart="409" departPos="0.00" arrivalPos="251.74" arrivalSpeed="0.00" from="4o" to="4o"/>
    <trip id="h222c1:1" type="default" depart="410" departPos="235.97" arrivalPos="219.70" arrivalSpeed="0.00" from="3i" to="4o"/>
    <trip id="carIn182:1" type="default" depart="410" departPos="243.67" arrivalPos="292.32" arrivalSpeed="0.00" from="4i" to="3o"/>
    <trip id="h276c1:1" type="default" depart="411" departPos="107.01" arrivalPos="290.05" arrivalSpeed="0.00" from="3o" to="4o"/>
    <trip id="h114c1:1" type="default" depart="412" departPos="48.82" arrivalPos="25.34" arrivalSpeed="0.00" from="4o" to="3i"/>
    <trip id="carIn165:1" type="default" depart="412" departPos="243.67" arrivalPos="371.81" arrivalSpeed="0.00" from="3i" to="2o"/>
    <trip id="carIn29:1" type="default" depart="414" departPos="243.67" arrivalPos="411.05" arrivalSpeed="0.00" from="4i" to="2o"/>
    <trip id="carIn100:1" type="default" depart="414" departPos="0.00" arrivalPos="331.83" arrivalSpeed="0.00" from="3o" to="3o"/>
    <trip id="h146c1:1" type="default" depart="416" departPos="443.42" arrivalPos="187.19" arrivalSpeed="0.00" from="4o" to="3o"/>
    <trip id="carIn35:1" type="default" depart="416" departPos="243.67" arrivalPos="47.20" arrivalSpeed="0.00" from="2i" to="4i"/>
    <trip id="h26c1:1" type="default" depart="418" departPos="158.08" arrivalPos="109.29" arrivalSpeed="0.00" from="4i" to="2i"/>
    <trip id="h260c2:1" type="default" depart="420" departPos="251.66" arrivalPos="224.32" arrivalSpeed="0.00" from="3o" to="2i"/>
    <trip id="carIn60:1" type="default" depart="423" departPos="243.67" arrivalPos="208.91" arrivalSpeed="0.00" from="1i" to="4i"/>
    <trip id="h11c1:1" type="default" depart="424" departPos="302.69" arrivalPos="348.29" arrivalSpeed="0.00" from="4i" to="2o"/>
    <trip id="h107c1:1" type="default" depart="425" departPos="420.96" arrivalPos="443.29" arrivalSpeed="0.00" from="4o" to="2o"/>
    <trip id="carIn38:1" type="default" depart="426" departPos="0.00" arrivalPos="373.19" arrivalSpeed="0.00" from="1o" to="4i"/>
    <trip id="carIn126:1" type="default" depart="426" departPos="0.00" arrivalPos="404.47" arrivalSpeed="0.00" from="2o" to="2o"/>
    <trip id="carIn148:1" type="default" depart="426" departPos="243.67" arrivalPos="280.10" arrivalSpeed="0.00" from="3i" to="4i"/>
    <trip id="h244c1:1" type="default" depart="428" departPos="468.13" arrivalPos="7.35" arrivalSpeed="0.00" from="3o" to="4o"/>
    <trip id="h200c1:1" type="default" depart="431" departPos="376.63" arrivalPos="76.70" arrivalSpeed="0.00" from="3i" to="2i"/>
    <trip id="h500c1:1" type="default" depart="431" departPos="27.72" arrivalPos="46.71" arrivalSpeed="0.00" from="1o" to="3i"/>
    <trip id="carIn144:1" type="default" depart="431" departPos="243.67" arrivalPos="380.58" arrivalSpeed="0.00" from="4i" to="3i"/>
    <trip id="carIn196:1" type="default" depart="431" departPos="0.00" arrivalPos="148.36" arrivalSpeed="0.00" from="2o" to="4o"/>
    <trip id="h62c1:1" type="default" depart="432" departPos="88.37" arrivalPos="243.67" arrivalSpeed="0.00" from="4i" to="3i"/>
    <trip id="carIn9:1" type="default" depart="432" departPos="243.67" arrivalPos="380.87" arrivalSpeed="0.00" from="1i" to="3o"/>
    <trip id="h96c1:1" type="default" depart="434" departPos="174.74" arrivalPos="463.99" arrivalSpeed="0.00" from="4o" to="3o"/>
    <trip id="h136c1:1" type="default" depart="434" departPos="359.33" arrivalPos="458.39" arrivalSpeed="0.00" from="4o" to="3o"/>
    <trip id="h477c1:1" type="default" depart="434" departPos="441.57" arrivalPos="474.64" arrivalSpeed="0.00" from="2o" to="3o"/>
    <trip id="h199c1:1" type="default" depart="435" departPos="296.03" arrivalPos="333.61" arrivalSpeed="0.00" from="3i" to="4o"/>
    <trip id="h314c1:1" type="default" depart="435" departPos="256.40" arrivalPos="243.67" arrivalSpeed="0.00" from="3o" to="2i"/>
    <trip id="carIn168:1" type="default" depart="438" departPos="243.67" arrivalPos="442.95" arrivalSpeed="0.00" from="1i" to="4i"/>
    <trip id="carIn192:1" type="default" depart="438" departPos="0.00" arrivalPos="438.86" arrivalSpeed="0.00" from="1o" to="3o"/>
    <trip id="h28c1:1" type="default" depart="439" departPos="129.51" arrivalPos="176.76" arrivalSpeed="0.00" from="4i" to="3i"/>
    <trip id="carIn151:1" type="default" depart="441" departPos="243.67" arrivalPos="275.57" arrivalSpeed="0.00" from="3i" to="4i"/>
    <trip id="h457c1:1" type="default" depart="442" departPos="66.49" arrivalPos="449.45" arrivalSpeed="0.00" from="2o" to="2o"/>
    <trip id="carIn5:1" type="default" depart="442" departPos="0.00" arrivalPos="266.35" arrivalSpeed="0.00" from="1o" to="4o"/>
    <trip id="carIn50:1" type="default" depart="442" departPos="0.00" arrivalPos="306.09" arrivalSpeed="0.00" from="3o" to="3o"/>
    <trip id="carIn130:1" type="default" depart="442" departPos="243.67" arrivalPos="0.51" arrivalSpeed="0.00" from="4i" to="3i"/>
    <trip id="carIn67:1" type="default" depart="443" departPos="243.67" arrivalPos="355.23" arrivalSpeed="0.00" from="1i" to="3o"/>
    <trip id="carIn141:1" type="default" depart="445" departPos="0.00" arrivalPos="243.67" arrivalSpeed="0.00" from="4o" to="4i"/>
    <trip id="h289c1:1" type="default" depart="446" departPos="444.42" arrivalPos="41.89" arrivalSpeed="0.00" from="3o" to="2o"/>
    <trip id="carIn185:1" type="default" depart="447" departPos="243.67" arrivalPos="34.82" arrivalSpeed="0.00" from="4i" to="2i"/>
    <trip id="carIn48:1" type="default" depart="449" departPos="0.00" arrivalPos="384.08" arrivalSpeed="0.00" from="1o" to="2o"/>
    <trip id="h194c1:1" type="default" depart="452" departPos="251.06" arrivalPos="334.89" arrivalSpeed="0.00" from="3i" to="4i"/>
    <trip id="h482c1:1" type="default" depart="452" departPos="353.82" arrivalPos="222.75" arrivalSpeed="0.00" from="2o" to="3i"/>
    <trip id="h180c1:1" type="default" depart="453" departPos="189.28" arrivalPos="431.65" arrivalSpeed="0.00" from="3i" to="4i"/>
    <trip id="h272c1:1" type="default" depart="453" departPos="25.28" arrivalPos="71.75" arrivalSpeed="0.00" from="3o" to="4i"/>
    <trip id="carIn26:1" type="default" depart="454" departPos="243.67" arrivalPos="215.85" arrivalSpeed="0.00" from="3i" to="4i"/>
    <trip id="carIn200:1" type="default" depart="455" departPos="0.00" arrivalPos="0.00" arrivalSpeed="0.00" from="4o" to="1o"/>
    <trip id="carIn193:1" type="default" depart="456" departPos="0.00" arrivalPos="347.05" arrivalSpeed="0.00" from="1o" to="3o"/>
    <trip id="h468c1:1" type="default" depart="457" departPos="123.85" arrivalPos="330.99" arrivalSpeed="0.00" from="2o" to="3o"/>
    <trip id="h156c1:1" type="default" depart="458" departPos="401.79" arrivalPos="85.86" arrivalSpeed="0.00" from="4o" to="3i"/>
    <trip id="h311c1:1" type="default" depart="458" departPos="108.19" arrivalPos="173.34" arrivalSpeed="0.00" from="3o" to="4i"/>
    <trip id="h453c1:1" type="default" depart="458" departPos="446.94" arrivalPos="156.40" arrivalSpeed="0.00" from="2o" to="3o"/>
    <trip id="carIn99:1" type="default" depart="458" departPos="243.67" arrivalPos="291.85" arrivalSpeed="0.00" from="1i" to="4i"/>
    <trip id="carIn104:1" type="default" depart="458" departPos="243.67" arrivalPos="385.62" arrivalSpeed="0.00" from="3i" to="2o"/>
    <trip id="carIn16:1" type="default" depart="460" departPos="0.00" arrivalPos="169.51" arrivalSpeed="0.00" from="3o" to="4i"/>
    <trip id="carIn74:1" type="default" depart="460" departPos="243.67" arrivalPos="0.00" arrivalSpeed="0.00" from="4i" to="4o"/>
    <trip id="carIn36:1" type="default" depart="462" departPos="243.67" arrivalPos="58.90" arrivalSpeed="0.00" from="3i" to="3o"/>
    <trip id="carIn82:1" type="default" depart="462" departPos="243.67" arrivalPos="423.78" arrivalSpeed="0.00" from="4i" to="2i"/>
    <trip id="h226c1:1" type="default" depart="463" departPos="177.06" arrivalPos="454.98" arrivalSpeed="0.00" from="3i" to="4i"/>
    <trip id="carIn58:1" type="default" depart="464" departPos="243.67" arrivalPos="176.21" arrivalSpeed="0.00" from="1i" to="3i"/>
    <trip id="carIn85:1" type="default" depart="464" departPos="243.67" arrivalPos="139.38" arrivalSpeed="0.00" from="4i" to="2i"/>
    <trip id="carIn167:1" type="default" depart="464" departPos="243.67" arrivalPos="481.38" arrivalSpeed="0.00" from="3i" to="2o"/>
    <trip id="h182c1:1" type="default" depart="465" departPos="144.28" arrivalPos="109.34" arrivalSpeed="0.00" from="3i" to="4o"/>
    <trip id="h304c1:1" type="default" depart="465" departPos="176.64" arrivalPos="256.19" arrivalSpeed="0.00" from="3o" to="4i"/>
    <trip id="h368c1:1" type="default" depart="468" departPos="38.46" arrivalPos="479.38" arrivalSpeed="0.00" from="2i" to="2i"/>
    <trip id="h278c2:1" type="default" depart="470" departPos="302.04" arrivalPos="243.67" arrivalSpeed="0.00" from="3o" to="2i"/>
    <trip id="h193c1:1" type="default" depart="471" departPos="60.72" arrivalPos="7.67" arrivalSpeed="0.00" from="3i" to="2i"/>
    <trip id="h308c1:1" type="default" depart="471" departPos="389.79" arrivalPos="479.84" arrivalSpeed="0.00" from="3o" to="3i"/>
    <trip id="h449c2:1" type="default" depart="471" departPos="347.91" arrivalPos="175.86" arrivalSpeed="0.00" from="2o" to="4i"/>
    <trip id="carIn174:1" type="default" depart="472" departPos="243.67" arrivalPos="185.20" arrivalSpeed="0.00" from="4i" to="2i"/>
    <trip id="h189c1:1" type="default" depart="473" departPos="425.39" arrivalPos="66.04" arrivalSpeed="0.00" from="3i" to="3i"/>
    <trip id="h476c1:1" type="default" depart="473" departPos="437.22" arrivalPos="259.49" arrivalSpeed="0.00" from="2o" to="3o"/>
    <trip id="carIn31:1" type="default" depart="473" departPos="243.67" arrivalPos="354.32" arrivalSpeed="0.00" from="4i" to="2o"/>
    <trip id="carIn65:1" type="default" depart="473" departPos="243.67" arrivalPos="460.00" arrivalSpeed="0.00" from="1i" to="2o"/>
    <trip id="carIn134:1" type="default" depart="474" departPos="0.00" arrivalPos="261.04" arrivalSpeed="0.00" from="2o" to="3i"/>
    <trip id="h19c1:1" type="default" depart="477" departPos="233.30" arrivalPos="126.87" arrivalSpeed="0.00" from="4i" to="3i"/>
    <trip id="h81c1:1" type="default" depart="477" departPos="265.17" arrivalPos="469.83" arrivalSpeed="0.00" from="4o" to="3o"/>
    <trip id="carIn172:1" type="default" depart="479" departPos="243.67" arrivalPos="235.20" arrivalSpeed="0.00" from="3i" to="4o"/>
    <trip id="carIn198:1" type="default" depart="480" departPos="0.00" arrivalPos="173.78" arrivalSpeed="0.00" from="1o" to="3o"/>
    <trip id="carIn155:1" type="default" depart="482" departPos="243.67" arrivalPos="336.03" arrivalSpeed="0.00" from="4i" to="4o"/>
    <trip id="carIn161:1" type="default" depart="484" departPos="243.67" arrivalPos="426.54" arrivalSpeed="0.00" from="2i" to="4o"/>
    <trip id="carIn27:1" type="default" depart="485" departPos="0.00" arrivalPos="166.71" arrivalSpeed="0.00" from="3o" to="3i"/>
    <trip id="carIn28:1" type="default" depart="485" departPos="243.67" arrivalPos="462.24" arrivalSpeed="0.00" from="3i" to="2o"/>
    <trip id="carIn47:1" type="default" depart="486" departPos="0.00" arrivalPos="164.86" arrivalSpeed="0.00" from="1o" to="2o"/>
    <trip id="carIn169:1" type="default" depart="487" departPos="243.67" arrivalPos="465.38" arrivalSpeed="0.00" from="1i" to="4i"/>
    <trip id="carIn91:1" type="default" depart="488" departPos="243.67" arrivalPos="138.87" arrivalSpeed="0.00" from="1i" to="3i"/>
    <trip id="h357c1:1" type="default" depart="489" departPos="86.16" arrivalPos="368.97" arrivalSpeed="0.00" from="2i" to="4o"/>
    <trip id="h295c1:1" type="default" depart="490" departPos="435.18" arrivalPos="26.07" arrivalSpeed="0.00" from="3o" to="1o"/>