<?xml version="1.0" encoding="UTF-8"?>

<!-- generated on 03/21/18 14:39:42 by SUMO duarouter Version 0.31.0
<?xml version="1.0" encoding="UTF-8"?>

<configuration xmlns:xsi="http://www.w3.org/2001/XMLSchema-instance" xsi:noNamespaceSchemaLocation="http://sumo.dlr.de/xsd/duarouterConfiguration.xsd">

    <input>
        <net-file value="cross.net.xml"/>
        <route-files value="cross_ag.trips.rou.xml"/>
    </input>

    <output>
        <output-file value="cross_ag.rou.xml"/>
    </output>

    <processing>
        <ignore-errors value="true"/>
    </processing>

</configuration>
-->

<routes xmlns:xsi="http://www.w3.org/2001/XMLSchema-instance" xsi:noNamespaceSchemaLocation="http://sumo.dlr.de/xsd/routes_file.xsd">
    <vType id="default" vClass="passenger" color="red"/>
    <vehicle id="carIn30:1" type="default" depart="72.00" departPos="0.00" arrivalPos="451.12" arrivalSpeed="0.00">
        <route edges="1o 1os 1is 1i 2o"/>
    </vehicle>
    <vehicle id="carIn17:1" type="default" depart="112.00" departPos="243.67" arrivalPos="47.69" arrivalSpeed="0.00">
        <route edges="4i 2o 2i"/>
    </vehicle>
    <vehicle id="h288c1:1" type="default" depart="143.00" departPos="329.84" arrivalPos="243.69" arrivalSpeed="0.00">
        <route edges="3o 3i 4o 4i"/>
    </vehicle>
    <vehicle id="carIn124:1" type="default" depart="165.00" departPos="0.00" arrivalPos="469.59" arrivalSpeed="0.00">
        <route edges="2o 2i 3o"/>
    </vehicle>
    <vehicle id="h73c1:1" type="default" depart="166.00" departPos="93.11" arrivalPos="466.79" arrivalSpeed="0.00">
        <route edges="4i 3o"/>
    </vehicle>
    <vehicle id="h365c1:1" type="default" depart="170.00" departPos="195.61" arrivalPos="280.80" arrivalSpeed="0.00">
        <route edges="2i 3o"/>
    </vehicle>
    <vehicle id="h70c1:1" type="default" depart="179.00" departPos="35.76" arrivalPos="224.85" arrivalSpeed="0.00">
        <route edges="4i 3o 3i"/>
    </vehicle>
    <vehicle id="carIn149:1" type="default" depart="183.00" departPos="243.67" arrivalPos="82.27" arrivalSpeed="0.00">
        <route edges="2i 3o 3i"/>
    </vehicle>
    <vType id="random" vClass="passenger" color="blue"/>
    <vehicle id="randUni82:1" type="random" depart="185.00" departPos="175.30" arrivalPos="317.38" arrivalSpeed="0.00">
        <route edges="1is 1i 2o"/>
    </vehicle>
    <vehicle id="h268c1:1" type="default" depart="205.00" departPos="412.03" arrivalPos="403.21" arrivalSpeed="0.00">
        <route edges="3o 3i 4o"/>
    </vehicle>
    <vehicle id="h54c1:1" type="default" depart="209.00" departPos="97.32" arrivalPos="416.77" arrivalSpeed="0.00">
        <route edges="4i 2o 2i"/>
    </vehicle>
    <vehicle id="h9c1:1" type="default" depart="214.00" departPos="56.01" arrivalPos="53.21" arrivalSpeed="0.00">
        <route edges="4i 2o"/>
    </vehicle>
    <vehicle id="h241c2:1" type="default" depart="215.00" departPos="8.54" arrivalPos="458.73" arrivalSpeed="0.00">
        <route edges="3i 2o"/>
    </vehicle>
    <vehicle id="carIn21:1" type="default" depart="215.00" departPos="0.00" arrivalPos="155.11" arrivalSpeed="0.00">
        <route edges="2o 2i 3o"/>
    </vehicle>
    <vehicle id="carIn95:1" type="default" depart="217.00" departPos="243.67" arrivalPos="320.97" arrivalSpeed="0.00">
        <route edges="1i 4o"/>
    </vehicle>
    <vehicle id="h187c1:1" type="default" depart="229.00" departPos="98.83" arrivalPos="415.79" arrivalSpeed="0.00">
        <route edges="3i 4o 4i"/>
    </vehicle>
    <vehicle id="h367c1:1" type="default" depart="231.00" departPos="10.57" arrivalPos="243.67" arrivalSpeed="0.00">
        <route edges="2i 3o 3i"/>
    </vehicle>
    <vehicle id="carIn44:1" type="default" depart="249.00" departPos="243.67" arrivalPos="289.70" arrivalSpeed="0.00">
        <route edges="4i 3o"/>
    </vehicle>
    <vehicle id="carIn156:1" type="default" depart="259.00" departPos="243.67" arrivalPos="424.30" arrivalSpeed="0.00">
        <route edges="4i 2o"/>
    </vehicle>
    <vehicle id="h497c1:1" type="default" depart="261.00" departPos="36.91" arrivalPos="462.32" arrivalSpeed="0.00">
        <route edges="1o 1os 1is 1i 3o"/>
    </vehicle>
    <vehicle id="carIn70:1" type="default" depart="269.00" departPos="0.00" arrivalPos="370.35" arrivalSpeed="0.00">
        <route edges="1o 1os 1is 1i 3o"/>
    </vehicle>
    <vehicle id="h221c1:1" type="default" depart="270.00" departPos="196.24" arrivalPos="279.01" arrivalSpeed="0.00">
        <route edges="3i 2o"/>
    </vehicle>
    <vehicle id="carIn162:1" type="default" depart="270.00" departPos="243.67" arrivalPos="439.91" arrivalSpeed="0.00">
        <route edges="2i 3o"/>
    </vehicle>
    <vehicle id="h258c1:1" type="default" depart="276.00" departPos="324.03" arrivalPos="437.66" arrivalSpeed="0.00">
        <route edges="3o 3i 4o"/>
    </vehicle>
    <vehicle id="carIn61:1" type="default" depart="277.00" departPos="243.67" arrivalPos="243.67" arrivalSpeed="0.00">
        <route edges="3i 1o 1os 1is 1i"/>
    </vehicle>
    <vehicle id="carIn37:1" type="default" depart="279.00" departPos="243.67" arrivalPos="184.83" arrivalSpeed="0.00">
        <route edges="3i 2o"/>
    </vehicle>
    <vehicle id="h24c1:1" type="default" depart="280.00" departPos="388.34" arrivalPos="403.49" arrivalSpeed="0.00">
        <route edges="4i 3o"/>
    </vehicle>
    <vehicle id="carIn179:1" type="default" depart="281.00" departPos="0.00" arrivalPos="174.04" arrivalSpeed="0.00">
        <route edges="1o 1os 1is 1i 4o 4i"/>
    </vehicle>
    <vehicle id="h217c1:1" type="default" depart="282.00" departPos="144.83" arrivalPos="22.68" arrivalSpeed="0.00">
        <route edges="3i 1o"/>
    </vehicle>
    <vehicle id="h263c1:1" type="default" depart="282.00" departPos="360.74" arrivalPos="242.63" arrivalSpeed="0.00">
        <route edges="3o 3i 2o 2i"/>
    </vehicle>
    <vehicle id="carIn7:1" type="default" depart="285.00" departPos="0.00" arrivalPos="243.67" arrivalSpeed="0.00">
        <route edges="4o 4i 1o 1os 1is 1i"/>
    </vehicle>
    <vehicle id="carIn93:1" type="default" depart="285.00" departPos="243.67" arrivalPos="97.51" arrivalSpeed="0.00">
        <route edges="4i 3o 3i"/>
    </vehicle>
    <vehicle id="h287c1:1" type="default" depart="287.00" departPos="247.99" arrivalPos="165.08" arrivalSpeed="0.00">
        <route edges="3o 3i 2o 2i"/>
    </vehicle>
    <vehicle id="carIn115:1" type="default" depart="287.00" departPos="243.67" arrivalPos="243.67" arrivalSpeed="0.00">
        <route edges="3i 4o 4i"/>
    </vehicle>
    <vehicle id="carIn19:1" type="default" depart="288.00" departPos="243.67" arrivalPos="433.89" arrivalSpeed="0.00">
        <route edges="1i 4o 4i"/>
    </vehicle>
    <vehicle id="h356c1:1" type="default" depart="289.00" departPos="425.82" arrivalPos="417.52" arrivalSpeed="0.00">
        <route edges="2i 3o"/>
    </vehicle>
    <vehicle id="h308c2:1" type="default" depart="293.00" departPos="389.79" arrivalPos="101.17" arrivalSpeed="0.00">
        <route edges="3o 3i 4o 4i"/>
    </vehicle>
    <vehicle id="carIn55:1" type="default" depart="293.00" departPos="243.67" arrivalPos="196.58" arrivalSpeed="0.00">
        <route edges="1i 4o"/>
    </vehicle>
    <vehicle id="h77c1:1" type="default" depart="294.00" departPos="256.28" arrivalPos="460.86" arrivalSpeed="0.00">
        <route edges="4i 3o"/>
    </vehicle>
    <vehicle id="carIn181:1" type="default" depart="297.00" departPos="243.67" arrivalPos="133.84" arrivalSpeed="0.00">
        <route edges="3i 4o 4i"/>
    </vehicle>
    <vehicle id="h235c1:1" type="default" depart="300.00" departPos="59.43" arrivalPos="106.38" arrivalSpeed="0.00">
        <route edges="3i 4o"/>
    </vehicle>
    <vehicle id="h256c1:1" type="default" depart="302.00" departPos="390.31" arrivalPos="420.74" arrivalSpeed="0.00">
        <route edges="3o 3i 4o"/>
    </vehicle>
    <vehicle id="carIn187:1" type="default" depart="302.00" departPos="243.67" arrivalPos="359.94" arrivalSpeed="0.00">
        <route edges="3i 2o 2i"/>
    </vehicle>
    <vehicle id="h264c1:1" type="default" depart="303.00" departPos="326.76" arrivalPos="377.39" arrivalSpeed="0.00">
        <route edges="3o 3i 4o 4i"/>
    </vehicle>
    <vehicle id="h296c2:1" type="default" depart="303.00" departPos="237.93" arrivalPos="24.10" arrivalSpeed="0.00">
        <route edges="3o 3i 4o 4i"/>
    </vehicle>
    <vehicle id="carIn143:1" type="default" depart="304.00" departPos="0.00" arrivalPos="432.87" arrivalSpeed="0.00">
        <route edges="2o 2i 4o"/>
    </vehicle>
    <vehicle id="randUni115:1" type="random" depart="304.00" departPos="381.68" arrivalPos="307.28" arrivalSpeed="0.00">
        <route edges="4o 4i 1o 1os 1is"/>
    </vehicle>
    <vehicle id="carIn135:1" type="default" depart="305.00" departPos="243.67" arrivalPos="82.60" arrivalSpeed="0.00">
        <route edges="4i 2o 2i"/>
    </vehicle>
    <vehicle id="h185c1:1" type="default" depart="307.00" departPos="110.98" arrivalPos="348.04" arrivalSpeed="0.00">
        <route edges="3i 4o"/>
    </vehicle>
    <vehicle id="h228c1:1" type="default" depart="308.00" departPos="41.47" arrivalPos="210.21" arrivalSpeed="0.00">
        <route edges="3i 2o"/>
    </vehicle>
    <vehicle id="carIn152:1" type="default" depart="311.00" departPos="243.67" arrivalPos="98.46" arrivalSpeed="0.00">
        <route edges="1i 4o"/>
    </vehicle>
    <vehicle id="h97c1:1" type="default" depart="312.00" departPos="479.41" arrivalPos="426.28" arrivalSpeed="0.00">
        <route edges="4o 4i 3o"/>
    </vehicle>
    <vehicle id="h439c1:1" type="default" depart="312.00" departPos="379.32" arrivalPos="194.59" arrivalSpeed="0.00">
        <route edges="2o 2i 4o"/>
    </vehicle>
    <vehicle id="h249c1:1" type="default" depart="313.00" departPos="373.33" arrivalPos="243.67" arrivalSpeed="0.00">
        <route edges="3o 3i 4o 4i"/>
    </vehicle>
    <vehicle id="carIn109:1" type="default" depart="313.00" departPos="243.67" arrivalPos="262.60" arrivalSpeed="0.00">
        <route edges="3i 4o 4i"/>
    </vehicle>
    <vehicle id="h203c1:1" type="default" depart="315.00" departPos="413.67" arrivalPos="202.80" arrivalSpeed="0.00">
        <route edges="3i 4o 4i"/>
    </vehicle>
    <vehicle id="carIn189:1" type="default" depart="315.00" departPos="243.67" arrivalPos="95.41" arrivalSpeed="0.00">
        <route edges="3i 2o 2i"/>
    </vehicle>
    <vehicle id="h43c1:1" type="default" depart="323.00" departPos="463.57" arrivalPos="57.81" arrivalSpeed="0.00">
        <route edges="4i 3o 3i"/>
    </vehicle>
    <vehicle id="h465c1:1" type="default" depart="323.00" departPos="432.30" arrivalPos="445.59" arrivalSpeed="0.00">
        <route edges="2o 2i 3o"/>
    </vehicle>
    <vehicle id="carIn114:1" type="default" depart="323.00" departPos="243.67" arrivalPos="345.64" arrivalSpeed="0.00">
        <route edges="3i 2o"/>
    </vehicle>
    <vehicle id="h173c1:1" type="default" depart="325.00" departPos="28.05" arrivalPos="286.19" arrivalSpeed="0.00">
        <route edges="3i 2o 2i"/>
    </vehicle>
    <vehicle id="h183c1:1" type="default" depart="325.00" departPos="18.87" arrivalPos="245.43" arrivalSpeed="0.00">
        <route edges="3i 2o"/>
    </vehicle>
    <vehicle id="h229c1:1" type="default" depart="326.00" departPos="260.45" arrivalPos="364.48" arrivalSpeed="0.00">
        <route edges="3i 4o"/>
    </vehicle>
    <vehicle id="h259c1:1" type="default" depart="327.00" departPos="281.88" arrivalPos="451.49" arrivalSpeed="0.00">
        <route edges="3o 3i 4o"/>
    </vehicle>
    <vehicle id="carIn66:1" type="default" depart="327.00" departPos="0.00" arrivalPos="25.32" arrivalSpeed="0.00">
        <route edges="2o 2i 3o 3i"/>
    </vehicle>
    <vehicle id="carIn118:1" type="default" depart="330.00" departPos="0.00" arrivalPos="126.71" arrivalSpeed="0.00">
        <route edges="3o 3i"/>
    </vehicle>
    <vehicle id="h296c1:1" type="default" depart="332.00" departPos="237.93" arrivalPos="466.97" arrivalSpeed="0.00">
        <route edges="3o 3i 4o"/>
    </vehicle>
    <vehicle id="h389c1:1" type="default" depart="332.00" departPos="336.98" arrivalPos="38.60" arrivalSpeed="0.00">
        <route edges="2i 3o 3i"/>
    </vehicle>
    <vehicle id="h124c1:1" type="default" depart="333.00" departPos="194.31" arrivalPos="375.18" arrivalSpeed="0.00">
        <route edges="4o 4i 2o"/>
    </vehicle>
    <vehicle id="carIn2:1" type="default" depart="333.00" departPos="243.67" arrivalPos="130.47" arrivalSpeed="0.00">
        <route edges="4i 1o 1os 1is 1i 4o"/>
    </vehicle>
    <vehicle id="h462c1:1" type="default" depart="335.00" departPos="478.58" arrivalPos="374.55" arrivalSpeed="0.00">
        <route edges="2o 2i 3o"/>
    </vehicle>
    <vehicle id="h211c1:1" type="default" depart="338.00" departPos="2.26" arrivalPos="254.95" arrivalSpeed="0.00">
        <route edges="3i 4o"/>
    </vehicle>
    <vehicle id="h277c2:1" type="default" depart="340.00" departPos="420.79" arrivalPos="133.96" arrivalSpeed="0.00">
        <route edges="3o 3i 4o 4i"/>
    </vehicle>
    <vehicle id="h277c1:1" type="default" depart="343.00" departPos="420.79" arrivalPos="243.67" arrivalSpeed="0.00">
        <route edges="3o 3i 4o 4i"/>
    </vehicle>
    <vehicle id="h213c1:1" type="default" depart="348.00" departPos="7.13" arrivalPos="460.01" arrivalSpeed="0.00">
        <route edges="3i 2o"/>
    </vehicle>
    <vehicle id="h398c1:1" type="default" depart="350.00" departPos="210.00" arrivalPos="182.81" arrivalSpeed="0.00">
        <route edges="2i 3o 3i"/>
    </vehicle>
    <vehicle id="carIn64:1" type="default" depart="350.00" departPos="243.67" arrivalPos="60.15" arrivalSpeed="0.00">
        <route edges="3i 2o"/>
    </vehicle>
    <vehicle id="carIn72:1" type="default" depart="350.00" departPos="243.67" arrivalPos="281.93" arrivalSpeed="0.00">
        <route edges="2i 3o 3i"/>
    </vehicle>
    <vehicle id="carIn157:1" type="default" depart="350.00" departPos="0.00" arrivalPos="411.46" arrivalSpeed="0.00">
        <route edges="4o 4i 2o"/>
    </vehicle>
    <vehicle id="h236c1:1" type="default" depart="351.00" departPos="256.47" arrivalPos="347.75" arrivalSpeed="0.00">
        <route edges="3i 4o 4i"/>
    </vehicle>
    <vehicle id="carIn98:1" type="default" depart="351.00" departPos="243.67" arrivalPos="269.82" arrivalSpeed="0.00">
        <route edges="3i 4o"/>
    </vehicle>
    <vehicle id="h300c1:1" type="default" depart="352.00" departPos="311.52" arrivalPos="460.70" arrivalSpeed="0.00">
        <route edges="3o 3i 4o"/>
    </vehicle>
    <vehicle id="carIn116:1" type="default" depart="352.00" departPos="243.67" arrivalPos="408.23" arrivalSpeed="0.00">
        <route edges="1i 4o 4i"/>
    </vehicle>
    <vehicle id="h49c1:1" type="default" depart="353.00" departPos="212.07" arrivalPos="455.26" arrivalSpeed="0.00">
        <route edges="4i 2o"/>
    </vehicle>
    <vehicle id="h339c1:1" type="default" depart="353.00" departPos="66.15" arrivalPos="303.02" arrivalSpeed="0.00">
        <route edges="2i 3o"/>
    </vehicle>
    <vehicle id="h112c1:1" type="default" depart="354.00" departPos="14.63" arrivalPos="135.51" arrivalSpeed="0.00">
        <route edges="4o 4i 3o 3i"/>
    </vehicle>
    <vehicle id="carIn171:1" type="default" depart="355.00" departPos="0.00" arrivalPos="291.16" arrivalSpeed="0.00">
        <route edges="3o"/>
    </vehicle>
    <vehicle id="h484c1:1" type="default" depart="356.00" departPos="45.65" arrivalPos="370.32" arrivalSpeed="0.00">
        <route edges="2o 2i 3o"/>
    </vehicle>
    <vehicle id="carIn194:1" type="default" depart="356.00" departPos="243.67" arrivalPos="449.97" arrivalSpeed="0.00">
        <route edges="4i 3o"/>
    </vehicle>
    <vehicle id="carIn183:1" type="default" depart="358.00" departPos="243.67" arrivalPos="340.60" arrivalSpeed="0.00">
        <route edges="4i 3o"/>
    </vehicle>
    <vehicle id="h40c1:1" type="default" depart="363.00" departPos="269.16" arrivalPos="243.67" arrivalSpeed="0.00">
        <route edges="4i 1o 1os 1is 1i"/>
    </vehicle>
    <vehicle id="carIn25:1" type="default" depart="364.00" departPos="243.67" arrivalPos="89.85" arrivalSpeed="0.00">
        <route edges="1i 3o 3i"/>
    </vehicle>
    <vehicle id="h359c1:1" type="default" depart="365.00" departPos="411.15" arrivalPos="451.11" arrivalSpeed="0.00">
        <route edges="2i 1o 1os 1is 1i 2o"/>
    </vehicle>
    <vehicle id="h157c1:1" type="default" depart="370.00" departPos="368.96" arrivalPos="135.78" arrivalSpeed="0.00">
        <route edges="4o 4i 3o 3i"/>
    </vehicle>
    <vehicle id="h440c1:1" type="default" depart="370.00" departPos="280.69" arrivalPos="471.15" arrivalSpeed="0.00">
        <route edges="2o 2i 3o"/>
    </vehicle>
    <vehicle id="h64c1:1" type="default" depart="377.00" departPos="143.90" arrivalPos="221.52" arrivalSpeed="0.00">
        <route edges="4i 3o"/>
    </vehicle>
    <vehicle id="h317c1:1" type="default" depart="377.00" departPos="206.10" arrivalPos="205.50" arrivalSpeed="0.00">
        <route edges="3o 3i 4o 4i"/>
    </vehicle>
    <vehicle id="h58c1:1" type="default" depart="378.00" departPos="47.71" arrivalPos="296.98" arrivalSpeed="0.00">
        <route edges="4i 2o"/>
    </vehicle>
    <vehicle id="carIn129:1" type="default" depart="378.00" departPos="0.00" arrivalPos="118.91" arrivalSpeed="0.00">
        <route edges="4o 4i 2o 2i"/>
    </vehicle>
    <vehicle id="carIn88:1" type="default" depart="379.00" departPos="0.00" arrivalPos="150.75" arrivalSpeed="0.00">
        <route edges="1o 1os 1is 1i 3o 3i"/>
    </vehicle>
    <vehicle id="carIn40:1" type="default" depart="382.00" departPos="243.67" arrivalPos="387.46" arrivalSpeed="0.00">
        <route edges="4i 2o"/>
    </vehicle>
    <vehicle id="carIn164:1" type="default" depart="382.00" departPos="0.00" arrivalPos="418.05" arrivalSpeed="0.00">
        <route edges="2o 2i 3o"/>
    </vehicle>
    <vehicle id="h120c1:1" type="default" depart="383.00" departPos="264.31" arrivalPos="298.82" arrivalSpeed="0.00">
        <route edges="4o 4i 2o"/>
    </vehicle>
    <vehicle id="h59c1:1" type="default" depart="384.00" departPos="270.09" arrivalPos="243.67" arrivalSpeed="0.00">
        <route edges="4i 3o 3i"/>
    </vehicle>
    <vehicle id="h241c1:1" type="default" depart="385.00" departPos="8.54" arrivalPos="246.60" arrivalSpeed="0.00">
        <route edges="3i 2o"/>
    </vehicle>
    <vehicle id="carIn3:1" type="default" depart="386.00" departPos="243.67" arrivalPos="481.79" arrivalSpeed="0.00">
        <route edges="2i 3o"/>
    </vehicle>
    <vehicle id="carIn81:1" type="default" depart="386.00" departPos="243.67" arrivalPos="413.87" arrivalSpeed="0.00">
        <route edges="1i 3o"/>
    </vehicle>
    <vehicle id="carIn71:1" type="default" depart="388.00" departPos="243.67" arrivalPos="243.67" arrivalSpeed="0.00">
        <route edges="1i 4o 4i"/>
    </vehicle>
    <vehicle id="carIn166:1" type="default" depart="388.00" departPos="0.00" arrivalPos="357.91" arrivalSpeed="0.00">
        <route edges="2o 2i 3o 3i"/>
    </vehicle>
    <vehicle id="h83c1:1" type="default" depart="389.00" departPos="295.53" arrivalPos="222.23" arrivalSpeed="0.00">
        <route edges="4o 4i 3o"/>
    </vehicle>
    <vehicle id="h214c1:1" type="default" depart="389.00" departPos="83.92" arrivalPos="243.67" arrivalSpeed="0.00">
        <route edges="3i 1o 1os 1is 1i"/>
    </vehicle>
    <vehicle id="h403c1:1" type="default" depart="389.00" departPos="28.06" arrivalPos="474.75" arrivalSpeed="0.00">
        <route edges="2i 3o"/>
    </vehicle>
    <vehicle id="carIn107:1" type="default" depart="389.00" departPos="243.67" arrivalPos="293.27" arrivalSpeed="0.00">
        <route edges="2i 3o"/>
    </vehicle>
    <vehicle id="h274c1:1" type="default" depart="394.00" departPos="418.30" arrivalPos="44.24" arrivalSpeed="0.00">
        <route edges="3o 3i 4o"/>
    </vehicle>
    <vehicle id="carIn57:1" type="default" depart="394.00" departPos="0.00" arrivalPos="274.03" arrivalSpeed="0.00">
        <route edges="4o 4i 2o 2i"/>
    </vehicle>
    <vehicle id="h134c1:1" type="default" depart="395.00" departPos="434.99" arrivalPos="325.08" arrivalSpeed="0.00">
        <route edges="4o 4i 3o 3i"/>
    </vehicle>
    <vehicle id="h4c1:1" type="default" depart="396.00" departPos="292.61" arrivalPos="243.67" arrivalSpeed="0.00">
        <route edges="4i 3o 3i"/>
    </vehicle>
    <vehicle id="h401c1:1" type="default" depart="396.00" departPos="173.31" arrivalPos="45.40" arrivalSpeed="0.00">
        <route edges="2i 3o 3i"/>
    </vehicle>
    <vehicle id="carIn13:1" type="default" depart="396.00" departPos="0.00" arrivalPos="317.78" arrivalSpeed="0.00">
        <route edges="2o 2i 4o"/>
    </vehicle>
    <vehicle id="carIn39:1" type="default" depart="397.00" departPos="0.00" arrivalPos="356.78" arrivalSpeed="0.00">
        <route edges="3o 3i 4o"/>
    </vehicle>
    <vehicle id="carIn186:1" type="default" depart="397.00" departPos="243.67" arrivalPos="25.37" arrivalSpeed="0.00">
        <route edges="2i 3o 3i"/>
    </vehicle>
    <vehicle id="h15c1:1" type="default" depart="399.00" departPos="183.24" arrivalPos="243.67" arrivalSpeed="0.00">
        <route edges="4i 2o 2i"/>
    </vehicle>
    <vehicle id="h105c1:1" type="default" depart="399.00" departPos="383.46" arrivalPos="48.88" arrivalSpeed="0.00">
        <route edges="4o 4i 3o 3i"/>
    </vehicle>
    <vehicle id="h370c1:1" type="default" depart="399.00" departPos="143.67" arrivalPos="476.60" arrivalSpeed="0.00">
        <route edges="2i 4o"/>
    </vehicle>
    <vehicle id="carIn15:1" type="default" depart="403.00" departPos="0.00" arrivalPos="312.72" arrivalSpeed="0.00">
        <route edges="4o 4i 2o"/>
    </vehicle>
    <vehicle id="h424c1:1" type="default" depart="405.00" departPos="460.35" arrivalPos="208.33" arrivalSpeed="0.00">
        <route edges="2o 2i 3o"/>
    </vehicle>
    <vehicle id="carIn96:1" type="default" depart="407.00" departPos="243.67" arrivalPos="273.22" arrivalSpeed="0.00">
        <route edges="1i 3o 3i"/>
    </vehicle>
    <vehicle id="carIn18:1" type="default" depart="408.00" departPos="243.67" arrivalPos="338.86" arrivalSpeed="0.00">
        <route edges="3i 1o 1os 1is 1i 3o"/>
    </vehicle>
    <vehicle id="carIn75:1" type="default" depart="408.00" departPos="243.67" arrivalPos="257.96" arrivalSpeed="0.00">
        <route edges="4i 1o 1os 1is 1i 4o"/>
    </vehicle>
    <vehicle id="carIn137:1" type="default" depart="408.00" departPos="0.00" arrivalPos="146.45" arrivalSpeed="0.00">
        <route edges="3o"/>
    </vehicle>
    <vehicle id="h219c1:1" type="default" depart="409.00" departPos="4.90" arrivalPos="407.29" arrivalSpeed="0.00">
        <route edges="3i 2o 2i"/>
    </vehicle>
    <vehicle id="h394c1:1" type="default" depart="409.00" departPos="26.31" arrivalPos="243.67" arrivalSpeed="0.00">
        <route edges="2i 3o 3i"/>
    </vehicle>
    <vehicle id="carIn131:1" type="default" depart="409.00" departPos="0.00" arrivalPos="251.74" arrivalSpeed="0.00">
        <route edges="4o"/>
    </vehicle>
    <vehicle id="h222c1:1" type="default" depart="410.00" departPos="235.97" arrivalPos="219.70" arrivalSpeed="0.00">
        <route edges="3i 4o"/>
    </vehicle>
    <vehicle id="carIn182:1" type="default" depart="410.00" departPos="243.67" arrivalPos="292.32" arrivalSpeed="0.00">
        <route edges="4i 3o"/>
    </vehicle>
    <vehicle id="h276c1:1" type="default" depart="411.00" departPos="107.01" arrivalPos="290.05" arrivalSpeed="0.00">
        <route edges="3o 3i 4o"/>
    </vehicle>
    <vehicle id="h114c1:1" type="default" depart="412.00" departPos="48.82" arrivalPos="25.34" arrivalSpeed="0.00">
        <route edges="4o 4i 3o 3i"/>
    </vehicle>
    <vehicle id="carIn165:1" type="default" depart="412.00" departPos="243.67" arrivalPos="371.81" arrivalSpeed="0.00">
        <route edges="3i 2o"/>
    </vehicle>
    <vehicle id="carIn29:1" type="default" depart="414.00" departPos="243.67" arrivalPos="411.05" arrivalSpeed="0.00">
        <route edges="4i 2o"/>
    </vehicle>
    <vehicle id="carIn100:1" type="default" depart="414.00" departPos="0.00" arrivalPos="331.83" arrivalSpeed="0.00">
        <route edges="3o"/>
    </vehicle>
    <vehicle id="h146c1:1" type="default" depart="416.00" departPos="443.42" arrivalPos="187.19" arrivalSpeed="0.00">
        <route edges="4o 4i 3o"/>
    </vehicle>
    <vehicle id="carIn35:1" type="default" depart="416.00" departPos="243.67" arrivalPos="47.20" arrivalSpeed="0.00">
        <route edges="2i 4o 4i"/>
    </vehicle>
    <vehicle id="h26c1:1" type="default" depart="418.00" departPos="158.08" arrivalPos="109.29" arrivalSpeed="0.00">
        <route edges="4i 2o 2i"/>
    </vehicle>
    <vehicle id="h260c2:1" type="default" depart="420.00" departPos="251.66" arrivalPos="224.32" arrivalSpeed="0.00">
        <route edges="3o 3i 2o 2i"/>
    </vehicle>
    <vehicle id="carIn60:1" type="default" depart="423.00" departPos="243.67" arrivalPos="208.91" arrivalSpeed="0.00">
        <route edges="1i 4o 4i"/>
    </vehicle>
    <vehicle id="h11c1:1" type="default" depart="424.00" departPos="302.69" arrivalPos="348.29" arrivalSpeed="0.00">
        <route edges="4i 2o"/>
    </vehicle>
    <vehicle id="h107c1:1" type="default" depart="425.00" departPos="420.96" arrivalPos="443.29" arrivalSpeed="0.00">
        <route edges="4o 4i 2o"/>
    </vehicle>
    <vehicle id="carIn38:1" type="default" depart="426.00" departPos="0.00" arrivalPos="373.19" arrivalSpeed="0.00">
        <route edges="1o 1os 1is 1i 4o 4i"/>
    </vehicle>
    <vehicle id="carIn126:1" type="default" depart="426.00" departPos="0.00" arrivalPos="404.47" arrivalSpeed="0.00">
        <route edges="2o"/>
    </vehicle>
    <vehicle id="carIn148:1" type="default" depart="426.00" departPos="243.67" arrivalPos="280.10" arrivalSpeed="0.00">
        <route edges="3i 4o 4i"/>
    </vehicle>
    <vehicle id="h244c1:1" type="default" depart="428.00" departPos="468.13" arrivalPos="7.35" arrivalSpeed="0.00">
        <route edges="3o 3i 4o"/>
    </vehicle>
    <vehicle id="h200c1:1" type="default" depart="431.00" departPos="376.63" arrivalPos="76.70" arrivalSpeed="0.00">
        <route edges="3i 2o 2i"/>
    </vehicle>
    <vehicle id="h500c1:1" type="default" depart="431.00" departPos="27.72" arrivalPos="46.71" arrivalSpeed="0.00">
        <route edges="1o 1os 1is 1i 3o 3i"/>
    </vehicle>
    <vehicle id="carIn144:1" type="default" depart="431.00" departPos="243.67" arrivalPos="380.58" arrivalSpeed="0.00">
        <route edges="4i 3o 3i"/>
    </vehicle>
    <vehicle id="carIn196:1" type="default" depart="431.00" departPos="0.00" arrivalPos="148.36" arrivalSpeed="0.00">
        <route edges="2o 2i 4o"/>
    </vehicle>
    <vehicle id="h62c1:1" type="default" depart="432.00" departPos="88.37" arrivalPos="243.67" arrivalSpeed="0.00">
        <route edges="4i 3o 3i"/>
    </vehicle>
    <vehicle id="carIn9:1" type="default" depart="432.00" departPos="243.67" arrivalPos="380.87" arrivalSpeed="0.00">
        <route edges="1i 3o"/>
    </vehicle>
    <vehicle id="h96c1:1" type="default" depart="434.00" departPos="174.74" arrivalPos="463.99" arrivalSpeed="0.00">
        <route edges="4o 4i 3o"/>
    </vehicle>
    <vehicle id="h136c1:1" type="default" depart="434.00" departPos="359.33" arrivalPos="458.39" arrivalSpeed="0.00">
        <route edges="4o 4i 3o"/>
    </vehicle>
    <vehicle id="h477c1:1" type="default" depart="434.00" departPos="441.57" arrivalPos="474.64" arrivalSpeed="0.00">
        <route edges="2o 2i 3o"/>
    </vehicle>
    <vehicle id="h199c1:1" type="default" depart="435.00" departPos="296.03" arrivalPos="333.61" arrivalSpeed="0.00">
        <route edges="3i 4o"/>
    </vehicle>
    <vehicle id="h314c1:1" type="default" depart="435.00" departPos="256.40" arrivalPos="243.67" arrivalSpeed="0.00">
        <route edges="3o 3i 2o 2i"/>
    </vehicle>
    <vehicle id="carIn168:1" type="default" depart="438.00" departPos="243.67" arrivalPos="442.95" arrivalSpeed="0.00">
        <route edges="1i 4o 4i"/>
    </vehicle>
    <vehicle id="carIn192:1" type="default" depart="438.00" departPos="0.00" arrivalPos="438.86" arrivalSpeed="0.00">
        <route edges="1o 1os 1is 1i 3o"/>
    </vehicle>
    <vehicle id="h28c1:1" type="default" depart="439.00" departPos="129.51" arrivalPos="176.76" arrivalSpeed="0.00">
        <route edges="4i 3o 3i"/>
    </vehicle>
    <vehicle id="carIn151:1" type="default" depart="441.00" departPos="243.67" arrivalPos="275.57" arrivalSpeed="0.00">
        <route edges="3i 4o 4i"/>
    </vehicle>
    <vehicle id="h457c1:1" type="default" depart="442.00" departPos="66.49" arrivalPos="449.45" arrivalSpeed="0.00">
        <route edges="2o"/>
    </vehicle>
    <vehicle id="carIn5:1" type="default" depart="442.00" departPos="0.00" arrivalPos="266.35" arrivalSpeed="0.00">
        <route edges="1o 1os 1is 1i 4o"/>
    </vehicle>
    <vehicle id="carIn50:1" type="default" depart="442.00" departPos="0.00" arrivalPos="306.09" arrivalSpeed="0.00">
        <route edges="3o"/>
    </vehicle>
    <vehicle id="carIn130:1" type="default" depart="442.00" departPos="243.67" arrivalPos="0.51" arrivalSpeed="0.00">
        <route edges="4i 3o 3i"/>
    </vehicle>
    <vehicle id="carIn67:1" type="default" depart="443.00" departPos="243.67" arrivalPos="355.23" arrivalSpeed="0.00">
        <route edges="1i 3o"/>
    </vehicle>
    <vehicle id="carIn141:1" type="default" depart="445.00" departPos="0.00" arrivalPos="243.67" arrivalSpeed="0.00">
        <route edges="4o 4i"/>
    </vehicle>
    <vehicle id="h289c1:1" type="default" depart="446.00" departPos="444.42" arrivalPos="41.89" arrivalSpeed="0.00">
        <route edges="3o 3i 2o"/>
    </vehicle>
    <vehicle id="carIn185:1" type="default" depart="447.00" departPos="243.67" arrivalPos="34.82" arrivalSpeed="0.00">
        <route edges="4i 2o 2i"/>
    </vehicle>