<?xml version="1.0" encoding="UTF-8"?>

<configuration xmlns:xsi="http://www.w3.org/2001/XMLSchema-instance" xsi:noNamespaceSchemaLocation="http://sumo.dlr.de/xsd/sumoConfiguration.xsd">

    <input>
        <net-file value="cross.net.xml"/>
        <route-files value="cross.rou.xml"/>
		<additional-files value="cross.add.xml"/>
    </input>

    <time>
        <begin value="0"/>
        <end value="200"/>
    </time>

    <gui_only>
        <gui-settings-file value="cross.settings.xml"/>
    </gui_only>

</configuration>
