<?xml version="1.0" encoding="UTF-8"?>

<!-- generated on Mon Mar 26 15:18:52 2018 by SUMO duarouter Version git
<?xml version="1.0" encoding="UTF-8"?>

<configuration xmlns:xsi="http://www.w3.org/2001/XMLSchema-instance" xsi:noNamespaceSchemaLocation="http://sumo.dlr.de/xsd/duarouterConfiguration.xsd">

    <input>
        <net-file value="/Users/eilifm/Documents/ts_testing/data/cross.net.xml"/>
        <route-files value="/Users/eilifm/Documents/ts_testing/data/cross.trips.rou.xml"/>
    </input>

    <output>
        <output-file value="/Users/eilifm/Documents/ts_testing/data/cross.rou.xml"/>
        <alternatives-output value="/Users/eilifm/Documents/ts_testing/data/cross.rou.alt.xml"/>
    </output>

</configuration>
-->

<routes xmlns:xsi="http://www.w3.org/2001/XMLSchema-instance" xsi:noNamespaceSchemaLocation="http://sumo.dlr.de/xsd/routes_file.xsd">
    <vType id="default" vClass="passenger" color="red"/>
    <vehicle id="h63c2:1" type="default" depart="272.00" departPos="27.65" arrivalPos="57.48" arrivalSpeed="0.00">
        <route edges="1i 3o 3i"/>
    </vehicle>
    <vehicle id="h264c1:1" type="default" depart="272.00" departPos="80.63" arrivalPos="4.97" arrivalSpeed="0.00">
        <route edges="3i 1o 1i"/>
    </vehicle>
    <vehicle id="h336c2:1" type="default" depart="277.00" departPos="453.46" arrivalPos="64.64" arrivalSpeed="0.00">
        <route edges="3o 3i 1o 1i"/>
    </vehicle>
    <vehicle id="h254c1:1" type="default" depart="279.00" departPos="46.25" arrivalPos="429.48" arrivalSpeed="0.00">
        <route edges="3i 1o"/>
    </vehicle>
    <vehicle id="h70c2:1" type="default" depart="287.00" departPos="371.97" arrivalPos="9.59" arrivalSpeed="0.00">
        <route edges="1o 1i 3o 3i"/>
    </vehicle>
    <vehicle id="h295c1:1" type="default" depart="309.00" departPos="184.57" arrivalPos="2.73" arrivalSpeed="0.00">
        <route edges="3i 1o 1i"/>
    </vehicle>
    <vehicle id="h103c2:1" type="default" depart="313.00" departPos="480.14" arrivalPos="188.38" arrivalSpeed="0.00">
        <route edges="1o 1i 3o 3i"/>
    </vehicle>
    <vehicle id="h367c1:1" type="default" depart="316.00" departPos="448.92" arrivalPos="322.23" arrivalSpeed="0.00">
        <route edges="3o 3i 1o"/>
    </vehicle>
    <vehicle id="h334c1:1" type="default" depart="325.00" departPos="418.65" arrivalPos="159.03" arrivalSpeed="0.00">
        <route edges="3o 3i 1o 1i"/>
    </vehicle>
    <vehicle id="h34c1:1" type="default" depart="331.00" departPos="175.44" arrivalPos="69.16" arrivalSpeed="0.00">
        <route edges="1i 3o 3i"/>
    </vehicle>
    <vehicle id="carIn178:1" type="default" depart="332.00" departPos="243.00" arrivalPos="5.42" arrivalSpeed="0.00">
        <route edges="2i 4o 4i"/>
    </vehicle>
    <vehicle id="h103c1:1" type="default" depart="333.00" departPos="480.14" arrivalPos="243.00" arrivalSpeed="0.00">
        <route edges="1o 1i 3o 3i"/>
    </vehicle>
    <vehicle id="carIn40:1" type="default" depart="341.00" departPos="243.00" arrivalPos="30.81" arrivalSpeed="0.00">
        <route edges="3i 1o 1i"/>
    </vehicle>
    <vehicle id="carIn86:1" type="default" depart="341.00" departPos="243.00" arrivalPos="28.60" arrivalSpeed="0.00">
        <route edges="1i 3o 3i"/>
    </vehicle>
    <vehicle id="carIn143:1" type="default" depart="343.00" departPos="243.00" arrivalPos="452.58" arrivalSpeed="0.00">
        <route edges="4i 2o"/>
    </vehicle>
    <vehicle id="h111c1:1" type="default" depart="344.00" departPos="420.97" arrivalPos="212.36" arrivalSpeed="0.00">
        <route edges="1o 1i 3o 3i"/>
    </vehicle>
    <vehicle id="h284c1:1" type="default" depart="348.00" departPos="47.54" arrivalPos="243.00" arrivalSpeed="0.00">
        <route edges="3i 1o 1i"/>
    </vehicle>
    <vehicle id="carIn174:1" type="default" depart="353.00" departPos="243.00" arrivalPos="426.53" arrivalSpeed="0.00">
        <route edges="2i 4o"/>
    </vehicle>
    <vehicle id="carIn30:1" type="default" depart="356.00" departPos="243.00" arrivalPos="417.64" arrivalSpeed="0.00">
        <route edges="3i 1o"/>
    </vehicle>
    <vehicle id="h60c1:1" type="default" depart="362.00" departPos="9.59" arrivalPos="435.26" arrivalSpeed="0.00">
        <route edges="1i 2o"/>
    </vehicle>
    <vehicle id="carIn51:1" type="default" depart="363.00" departPos="243.00" arrivalPos="88.24" arrivalSpeed="0.00">
        <route edges="4i 2o 2i"/>
    </vehicle>
    <vehicle id="h10c1:1" type="default" depart="364.00" departPos="97.51" arrivalPos="236.50" arrivalSpeed="0.00">
        <route edges="1i 3o 3i"/>
    </vehicle>
    <vehicle id="carIn196:1" type="default" depart="364.00" departPos="243.00" arrivalPos="91.45" arrivalSpeed="0.00">
        <route edges="2i 4o 4i"/>
    </vehicle>
    <vehicle id="h409c1:1" type="default" depart="365.00" departPos="24.87" arrivalPos="47.08" arrivalSpeed="0.00">
        <route edges="4i 3o 3i"/>
    </vehicle>
    <vehicle id="h298c1:1" type="default" depart="366.00" departPos="98.71" arrivalPos="243.00" arrivalSpeed="0.00">
        <route edges="3i 1o 1i"/>
    </vehicle>
    <vehicle id="carIn9:1" type="default" depart="366.00" departPos="243.00" arrivalPos="391.38" arrivalSpeed="0.00">
        <route edges="4i 2o"/>
    </vehicle>
    <vehicle id="h212c1:1" type="default" depart="370.00" departPos="475.13" arrivalPos="407.40" arrivalSpeed="0.00">
        <route edges="2o 2i 1o"/>
    </vehicle>
    <vehicle id="h11c1:1" type="default" depart="371.00" departPos="273.20" arrivalPos="82.37" arrivalSpeed="0.00">
        <route edges="1i 3o 3i"/>
    </vehicle>
    <vehicle id="h324c1:1" type="default" depart="371.00" departPos="329.32" arrivalPos="294.43" arrivalSpeed="0.00">
        <route edges="3o 3i 1o"/>
    </vehicle>
    <vehicle id="h258c1:1" type="default" depart="372.00" departPos="150.00" arrivalPos="281.07" arrivalSpeed="0.00">
        <route edges="3i 1o"/>
    </vehicle>
    <vehicle id="h403c1:1" type="default" depart="372.00" departPos="11.50" arrivalPos="93.67" arrivalSpeed="0.00">
        <route edges="4i 3o 3i"/>
    </vehicle>
    <vehicle id="h279c1:1" type="default" depart="373.00" departPos="86.40" arrivalPos="20.24" arrivalSpeed="0.00">
        <route edges="3i 4o 4i"/>
    </vehicle>
    <vehicle id="h391c1:1" type="default" depart="376.00" departPos="45.74" arrivalPos="418.15" arrivalSpeed="0.00">
        <route edges="4i 1o"/>
    </vehicle>
    <vehicle id="h49c1:1" type="default" depart="378.00" departPos="88.68" arrivalPos="204.29" arrivalSpeed="0.00">
        <route edges="1i 3o"/>
    </vehicle>
    <vehicle id="h43c1:1" type="default" depart="381.00" departPos="128.12" arrivalPos="14.30" arrivalSpeed="0.00">
        <route edges="1i 2o 2i"/>
    </vehicle>
    <vehicle id="h62c1:1" type="default" depart="382.00" departPos="5.66" arrivalPos="109.56" arrivalSpeed="0.00">
        <route edges="1i 3o"/>
    </vehicle>
    <vehicle id="carIn2:1" type="default" depart="384.00" departPos="243.00" arrivalPos="342.37" arrivalSpeed="0.00">
        <route edges="3i 1o"/>
    </vehicle>
    <vehicle id="h221c1:1" type="default" depart="386.00" departPos="352.47" arrivalPos="24.40" arrivalSpeed="0.00">
        <route edges="2o 2i 3o 3i"/>
    </vehicle>
    <vehicle id="h292c1:1" type="default" depart="386.00" departPos="103.66" arrivalPos="435.52" arrivalSpeed="0.00">
        <route edges="3i 2o"/>
    </vehicle>
    <vehicle id="h100c1:1" type="default" depart="387.00" departPos="452.85" arrivalPos="124.89" arrivalSpeed="0.00">
        <route edges="1o 1i 2o 2i"/>
    </vehicle>
    <vehicle id="h28c2:1" type="default" depart="389.00" departPos="2.60" arrivalPos="305.58" arrivalSpeed="0.00">
        <route edges="1i 4o"/>
    </vehicle>
    <vehicle id="h116c1:1" type="default" depart="389.00" departPos="383.67" arrivalPos="427.51" arrivalSpeed="0.00">
        <route edges="1o 1i 2o"/>
    </vehicle>
    <vehicle id="h157c1:1" type="default" depart="389.00" departPos="68.44" arrivalPos="392.47" arrivalSpeed="0.00">
        <route edges="2i 3o"/>
    </vehicle>
    <vehicle id="h287c1:1" type="default" depart="389.00" departPos="81.53" arrivalPos="167.02" arrivalSpeed="0.00">
        <route edges="3i 1o"/>
    </vehicle>
    <vehicle id="h52c1:1" type="default" depart="390.00" departPos="99.43" arrivalPos="181.74" arrivalSpeed="0.00">
        <route edges="1i 3o"/>
    </vehicle>
    <vehicle id="h63c1:1" type="default" depart="390.00" departPos="27.65" arrivalPos="338.78" arrivalSpeed="0.00">
        <route edges="1i 4o"/>
    </vehicle>
    <vehicle id="h307c1:1" type="default" depart="390.00" departPos="230.71" arrivalPos="313.27" arrivalSpeed="0.00">
        <route edges="3i 1o"/>
    </vehicle>
    <vehicle id="h385c1:1" type="default" depart="391.00" departPos="129.29" arrivalPos="48.77" arrivalSpeed="0.00">
        <route edges="4i 3o 3i"/>
    </vehicle>
    <vehicle id="h468c1:1" type="default" depart="394.00" departPos="301.27" arrivalPos="473.20" arrivalSpeed="0.00">
        <route edges="4o 4i 3o"/>
    </vehicle>
    <vehicle id="h336c1:1" type="default" depart="395.00" departPos="453.46" arrivalPos="322.98" arrivalSpeed="0.00">
        <route edges="3o 3i 4o"/>
    </vehicle>
    <vehicle id="h261c1:1" type="default" depart="397.00" departPos="77.81" arrivalPos="118.62" arrivalSpeed="0.00">
        <route edges="3i 4o 4i"/>
    </vehicle>
    <vehicle id="h18c1:1" type="default" depart="398.00" departPos="55.84" arrivalPos="149.28" arrivalSpeed="0.00">
        <route edges="1i 2o 2i"/>
    </vehicle>
    <vehicle id="h443c1:1" type="default" depart="398.00" departPos="341.54" arrivalPos="57.18" arrivalSpeed="0.00">
        <route edges="4o 4i 3o 3i"/>
    </vehicle>
    <vehicle id="h174c1:1" type="default" depart="399.00" departPos="165.48" arrivalPos="440.70" arrivalSpeed="0.00">
        <route edges="2i 1o"/>
    </vehicle>
    <vehicle id="h171c1:1" type="default" depart="400.00" departPos="65.96" arrivalPos="144.27" arrivalSpeed="0.00">
        <route edges="2i 3o 3i"/>
    </vehicle>
    <vehicle id="carIn39:1" type="default" depart="401.00" departPos="243.00" arrivalPos="484.10" arrivalSpeed="0.00">
        <route edges="1i 2o"/>
    </vehicle>
    <vehicle id="h260c1:1" type="default" depart="402.00" departPos="173.04" arrivalPos="435.19" arrivalSpeed="0.00">
        <route edges="3i 4o"/>
    </vehicle>
    <vehicle id="carIn21:1" type="default" depart="402.00" departPos="243.00" arrivalPos="478.32" arrivalSpeed="0.00">
        <route edges="3i 4o"/>
    </vehicle>
    <vehicle id="carIn171:1" type="default" depart="405.00" departPos="243.00" arrivalPos="470.23" arrivalSpeed="0.00">
        <route edges="2i 1o"/>
    </vehicle>
    <vehicle id="h1c2:1" type="default" depart="406.00" departPos="176.45" arrivalPos="425.40" arrivalSpeed="0.00">
        <route edges="1i 2o"/>
    </vehicle>
    <vehicle id="h17c1:1" type="default" depart="407.00" departPos="44.04" arrivalPos="211.00" arrivalSpeed="0.00">
        <route edges="1i 2o 2i"/>
    </vehicle>
    <vehicle id="h129c1:1" type="default" depart="407.00" departPos="185.57" arrivalPos="428.05" arrivalSpeed="0.00">
        <route edges="2i 3o"/>
    </vehicle>
    <vehicle id="carIn125:1" type="default" depart="407.00" departPos="243.00" arrivalPos="279.40" arrivalSpeed="0.00">
        <route edges="1i 3o"/>
    </vehicle>
    <vehicle id="h344c1:1" type="default" depart="408.00" departPos="149.91" arrivalPos="115.21" arrivalSpeed="0.00">
        <route edges="3o 3i 1o 1i"/>
    </vehicle>
    <vehicle id="carIn137:1" type="default" depart="408.00" departPos="243.00" arrivalPos="461.70" arrivalSpeed="0.00">
        <route edges="4i 3o"/>
    </vehicle>
    <vehicle id="h249c1:1" type="default" depart="409.00" departPos="324.67" arrivalPos="407.19" arrivalSpeed="0.00">
        <route edges="2o 2i 3o"/>
    </vehicle>
    <vehicle id="h281c1:1" type="default" depart="409.00" departPos="348.23" arrivalPos="108.47" arrivalSpeed="0.00">
        <route edges="3i 1o 1i"/>
    </vehicle>
    <vehicle id="h328c1:1" type="default" depart="409.00" departPos="418.47" arrivalPos="178.66" arrivalSpeed="0.00">
        <route edges="3o 3i 2o 2i"/>
    </vehicle>
    <vehicle id="carIn97:1" type="default" depart="410.00" departPos="243.00" arrivalPos="32.98" arrivalSpeed="0.00">
        <route edges="3i 2o 2i"/>
    </vehicle>
    <vehicle id="carIn104:1" type="default" depart="411.00" departPos="243.00" arrivalPos="453.44" arrivalSpeed="0.00">
        <route edges="3i 2o"/>
    </vehicle>
    <vehicle id="h40c1:1" type="default" depart="412.00" departPos="115.88" arrivalPos="349.92" arrivalSpeed="0.00">
        <route edges="1i 2o"/>
    </vehicle>
    <vehicle id="carIn162:1" type="default" depart="412.00" departPos="243.00" arrivalPos="450.22" arrivalSpeed="0.00">
        <route edges="4i 1o"/>
    </vehicle>
    <vehicle id="h114c2:1" type="default" depart="413.00" departPos="336.42" arrivalPos="380.62" arrivalSpeed="0.00">
        <route edges="1o 1i 2o"/>
    </vehicle>
    <vehicle id="h480c1:1" type="default" depart="413.00" departPos="208.48" arrivalPos="23.36" arrivalSpeed="0.00">
        <route edges="4o 4i 3o 3i"/>
    </vehicle>
    <vehicle id="carIn96:1" type="default" depart="413.00" departPos="243.00" arrivalPos="444.92" arrivalSpeed="0.00">
        <route edges="4i 3o"/>
    </vehicle>
    <vehicle id="h14c1:1" type="default" depart="414.00" departPos="46.01" arrivalPos="243.00" arrivalSpeed="0.00">
        <route edges="1i 2o 2i"/>
    </vehicle>
    <vehicle id="carIn78:1" type="default" depart="414.00" departPos="243.00" arrivalPos="261.78" arrivalSpeed="0.00">
        <route edges="4i 2o"/>
    </vehicle>
    <vehicle id="h145c1:1" type="default" depart="416.00" departPos="205.62" arrivalPos="414.23" arrivalSpeed="0.00">
        <route edges="2i 1o"/>
    </vehicle>
    <vehicle id="h368c1:1" type="default" depart="416.00" departPos="299.99" arrivalPos="88.10" arrivalSpeed="0.00">
        <route edges="3o 3i 4o 4i"/>
    </vehicle>
    <vehicle id="h434c1:1" type="default" depart="416.00" departPos="273.36" arrivalPos="37.66" arrivalSpeed="0.00">
        <route edges="4i 1o 1i"/>
    </vehicle>
    <vehicle id="carIn72:1" type="default" depart="416.00" departPos="243.00" arrivalPos="232.53" arrivalSpeed="0.00">
        <route edges="1i 3o 3i"/>
    </vehicle>
    <vehicle id="h258c2:1" type="default" depart="418.00" departPos="150.00" arrivalPos="363.38" arrivalSpeed="0.00">
        <route edges="3i 2o"/>
    </vehicle>
    <vehicle id="h439c1:1" type="default" depart="418.00" departPos="115.90" arrivalPos="325.49" arrivalSpeed="0.00">
        <route edges="4i 3o"/>
    </vehicle>
    <vehicle id="h363c1:1" type="default" depart="419.00" departPos="374.31" arrivalPos="318.36" arrivalSpeed="0.00">
        <route edges="3o 3i 2o"/>
    </vehicle>
    <vehicle id="carIn19:1" type="default" depart="419.00" departPos="243.00" arrivalPos="62.06" arrivalSpeed="0.00">
        <route edges="3i 4o 4i"/>
    </vehicle>
    <vehicle id="h36c1:1" type="default" depart="420.00" departPos="65.45" arrivalPos="243.00" arrivalSpeed="0.00">
        <route edges="1i 4o 4i"/>
    </vehicle>
    <vehicle id="h114c1:1" type="default" depart="420.00" departPos="336.42" arrivalPos="131.01" arrivalSpeed="0.00">
        <route edges="1o 1i 2o 2i"/>
    </vehicle>
    <vehicle id="h191c1:1" type="default" depart="420.00" departPos="411.14" arrivalPos="3.96" arrivalSpeed="0.00">
        <route edges="2i 1o 1i"/>
    </vehicle>
    <vehicle id="carIn31:1" type="default" depart="420.00" departPos="243.00" arrivalPos="243.00" arrivalSpeed="0.00">
        <route edges="4i 2o 2i"/>
    </vehicle>
    <vehicle id="carIn32:1" type="default" depart="420.00" departPos="243.00" arrivalPos="243.00" arrivalSpeed="0.00">
        <route edges="3i 1o 1i"/>
    </vehicle>
    <vehicle id="carIn56:1" type="default" depart="420.00" departPos="243.00" arrivalPos="243.00" arrivalSpeed="0.00">
        <route edges="2i 4o 4i"/>
    </vehicle>
    <vehicle id="carIn124:1" type="default" depart="420.00" departPos="243.00" arrivalPos="243.00" arrivalSpeed="0.00">
        <route edges="4i 2o 2i"/>
    </vehicle>
    <vehicle id="h28c1:1" type="default" depart="421.00" departPos="2.60" arrivalPos="470.46" arrivalSpeed="0.00">
        <route edges="1i 2o 2i"/>
    </vehicle>
    <vehicle id="h153c1:1" type="default" depart="421.00" departPos="348.35" arrivalPos="465.49" arrivalSpeed="0.00">
        <route edges="2i 3o"/>
    </vehicle>
    <vehicle id="h83c1:1" type="default" depart="422.00" departPos="394.96" arrivalPos="208.40" arrivalSpeed="0.00">
        <route edges="1o 1i 2o 2i"/>
    </vehicle>
    <vehicle id="h202c1:1" type="default" depart="422.00" departPos="158.08" arrivalPos="459.07" arrivalSpeed="0.00">
        <route edges="2o 2i 1o"/>
    </vehicle>
    <vehicle id="h231c1:1" type="default" depart="422.00" departPos="364.53" arrivalPos="317.64" arrivalSpeed="0.00">
        <route edges="2o 2i 3o"/>
    </vehicle>
    <vehicle id="h308c2:1" type="default" depart="422.00" departPos="14.85" arrivalPos="102.60" arrivalSpeed="0.00">
        <route edges="3i 2o"/>
    </vehicle>
    <vehicle id="carIn47:1" type="default" depart="422.00" departPos="0.00" arrivalPos="5.04" arrivalSpeed="0.00">
        <route edges="1o 1i 2o 2i"/>
    </vehicle>
    <vehicle id="h467c1:1" type="default" depart="423.00" departPos="277.70" arrivalPos="394.97" arrivalSpeed="0.00">
        <route edges="4o 4i 1o"/>
    </vehicle>
    <vehicle id="h108c1:1" type="default" depart="424.00" departPos="25.67" arrivalPos="35.82" arrivalSpeed="0.00">
        <route edges="1o 1i 3o 3i"/>
    </vehicle>
    <vehicle id="carIn122:1" type="default" depart="424.00" departPos="243.00" arrivalPos="76.83" arrivalSpeed="0.00">
        <route edges="1i 4o 4i"/>
    </vehicle>
    <vehicle id="carIn134:1" type="default" depart="424.00" departPos="243.00" arrivalPos="255.50" arrivalSpeed="0.00">
        <route edges="1i 3o 3i"/>
    </vehicle>
    <vehicle id="carIn184:1" type="default" depart="424.00" departPos="243.00" arrivalPos="78.63" arrivalSpeed="0.00">
        <route edges="2i 3o 3i"/>
    </vehicle>
    <vehicle id="h48c1:1" type="default" depart="425.00" departPos="420.80" arrivalPos="79.78" arrivalSpeed="0.00">
        <route edges="1i 3o 3i"/>
    </vehicle>
    <vehicle id="carIn27:1" type="default" depart="425.00" departPos="0.00" arrivalPos="13.15" arrivalSpeed="0.00">
        <route edges="2o 2i"/>
    </vehicle>
    <vehicle id="carIn68:1" type="default" depart="425.00" departPos="243.00" arrivalPos="407.42" arrivalSpeed="0.00">
        <route edges="4i 3o"/>
    </vehicle>
    <vehicle id="carIn113:1" type="default" depart="425.00" departPos="243.00" arrivalPos="230.34" arrivalSpeed="0.00">
        <route edges="2i 4o"/>
    </vehicle>
    <vehicle id="h278c2:1" type="default" depart="426.00" departPos="97.19" arrivalPos="267.27" arrivalSpeed="0.00">
        <route edges="3i 4o"/>
    </vehicle>
    <vehicle id="h326c1:1" type="default" depart="426.00" departPos="411.04" arrivalPos="236.80" arrivalSpeed="0.00">
        <route edges="3o 3i 2o"/>
    </vehicle>
    <vehicle id="h92c1:1" type="default" depart="427.00" departPos="474.35" arrivalPos="4.49" arrivalSpeed="0.00">
        <route edges="1o"/>
    </vehicle>
    <vehicle id="h358c1:1" type="default" depart="427.00" departPos="471.00" arrivalPos="476.93" arrivalSpeed="0.00">
        <route edges="3o 3i 4o 4i"/>
    </vehicle>
    <vehicle id="carIn108:1" type="default" depart="427.00" departPos="243.00" arrivalPos="85.21" arrivalSpeed="0.00">
        <route edges="3i 4o 4i"/>
    </vehicle>
    <vehicle id="carIn112:1" type="default" depart="427.00" departPos="243.00" arrivalPos="402.37" arrivalSpeed="0.00">
        <route edges="3i 2o"/>
    </vehicle>
    <vehicle id="h23c1:1" type="default" depart="428.00" departPos="130.63" arrivalPos="185.70" arrivalSpeed="0.00">
        <route edges="1i 2o 2i"/>
    </vehicle>
    <vehicle id="h198c1:1" type="default" depart="429.00" departPos="245.55" arrivalPos="396.89" arrivalSpeed="0.00">
        <route edges="2o 2i 1o"/>
    </vehicle>
    <vehicle id="carIn62:1" type="default" depart="429.00" departPos="0.00" arrivalPos="465.35" arrivalSpeed="0.00">
        <route edges="4o"/>
    </vehicle>
    <vehicle id="carIn110:1" type="default" depart="429.00" departPos="243.00" arrivalPos="220.32" arrivalSpeed="0.00">
        <route edges="3i 1o"/>
    </vehicle>
    <vehicle id="carIn82:1" type="default" depart="430.00" departPos="0.00" arrivalPos="464.19" arrivalSpeed="0.00">
        <route edges="1o 1i 3o"/>
    </vehicle>
    <vehicle id="h121c1:1" type="default" depart="431.00" departPos="441.40" arrivalPos="358.63" arrivalSpeed="0.00">
        <route edges="1o 1i 4o 4i"/>
    </vehicle>
    <vehicle id="h278c1:1" type="default" depart="431.00" departPos="97.19" arrivalPos="240.03" arrivalSpeed="0.00">
        <route edges="3i 2o"/>
    </vehicle>
    <vehicle id="carIn168:1" type="default" depart="431.00" departPos="0.00" arrivalPos="458.84" arrivalSpeed="0.00">
        <route edges="4o"/>
    </vehicle>
    <vehicle id="h32c1:1" type="default" depart="432.00" departPos="119.17" arrivalPos="268.73" arrivalSpeed="0.00">
        <route edges="1i 2o"/>
    </vehicle>
    <vehicle id="carIn107:1" type="default" depart="432.00" departPos="243.00" arrivalPos="277.69" arrivalSpeed="0.00">
        <route edges="1i 3o 3i"/>
    </vehicle>
    <vehicle id="h16c1:1" type="default" depart="433.00" departPos="35.48" arrivalPos="46.19" arrivalSpeed="0.00">
        <route edges="1i 2o"/>
    </vehicle>
    <vehicle id="h106c1:1" type="default" depart="433.00" departPos="382.85" arrivalPos="243.00" arrivalSpeed="0.00">
        <route edges="1o 1i 2o 2i"/>
    </vehicle>
    <vehicle id="carIn36:1" type="default" depart="433.00" departPos="0.00" arrivalPos="456.06" arrivalSpeed="0.00">
        <route edges="1o 1i 4o"/>
    </vehicle>
    <vehicle id="carIn141:1" type="default" depart="433.00" departPos="0.00" arrivalPos="453.49" arrivalSpeed="0.00">
        <route edges="4o 4i 2o"/>
    </vehicle>
    <vehicle id="h304c2:1" type="default" depart="434.00" departPos="50.29" arrivalPos="382.98" arrivalSpeed="0.00">
        <route edges="3i 2o 2i"/>
    </vehicle>
    <vehicle id="h310c1:1" type="default" depart="434.00" departPos="158.11" arrivalPos="368.42" arrivalSpeed="0.00">
        <route edges="3i 1o 1i"/>
    </vehicle>
    <vehicle id="carIn38:1" type="default" depart="434.00" departPos="243.00" arrivalPos="205.83" arrivalSpeed="0.00">
        <route edges="2i 4o"/>
    </vehicle>
    <vehicle id="carIn156:1" type="default" depart="434.00" departPos="243.00" arrivalPos="110.00" arrivalSpeed="0.00">
        <route edges="3i 2o 2i"/>
    </vehicle>
    <vehicle id="h495c1:1" type="default" depart="435.00" departPos="189.82" arrivalPos="407.68" arrivalSpeed="0.00">
        <route edges="4o 4i 1o"/>
    </vehicle>
    <vehicle id="carIn28:1" type="default" depart="435.00" departPos="0.00" arrivalPos="449.63" arrivalSpeed="0.00">
        <route edges="4o 4i 3o"/>
    </vehicle>
    <vehicle id="h322c1:1" type="default" depart="436.00" departPos="445.95" arrivalPos="33.68" arrivalSpeed="0.00">
        <route edges="3o 3i 2o"/>
    </vehicle>
    <vehicle id="h423c1:1" type="default" depart="436.00" departPos="454.45" arrivalPos="444.56" arrivalSpeed="0.00">
        <route edges="4i 1o"/>
    </vehicle>
    <vehicle id="h429c1:1" type="default" depart="436.00" departPos="318.20" arrivalPos="412.07" arrivalSpeed="0.00">
        <route edges="4i 1o"/>
    </vehicle>
    <vehicle id="h304c1:1" type="default" depart="437.00" departPos="50.29" arrivalPos="415.93" arrivalSpeed="0.00">
        <route edges="3i 4o 4i"/>
    </vehicle>
    <vehicle id="h289c1:1" type="default" depart="438.00" departPos="370.57" arrivalPos="323.33" arrivalSpeed="0.00">
        <route edges="3i 1o"/>
    </vehicle>
    <vehicle id="carIn45:1" type="default" depart="438.00" departPos="0.00" arrivalPos="440.22" arrivalSpeed="0.00">
        <route edges="4o 4i 2o"/>
    </vehicle>
    <vehicle id="carIn191:1" type="default" depart="438.00" departPos="243.00" arrivalPos="367.94" arrivalSpeed="0.00">
        <route edges="2i 3o"/>
    </vehicle>
    <vehicle id="carIn4:1" type="default" depart="439.00" departPos="243.00" arrivalPos="361.95" arrivalSpeed="0.00">
        <route edges="2i 1o"/>
    </vehicle>
    <vehicle id="h127c1:1" type="default" depart="440.00" departPos="126.91" arrivalPos="180.87" arrivalSpeed="0.00">
        <route edges="1o 1i 3o 3i"/>
    </vehicle>
    <vehicle id="h216c1:1" type="default" depart="441.00" departPos="6.15" arrivalPos="55.63" arrivalSpeed="0.00">
        <route edges="2o 2i 3o 3i"/>
    </vehicle>
    <vehicle id="h320c1:1" type="default" depart="441.00" departPos="28.80" arrivalPos="403.25" arrivalSpeed="0.00">
        <route edges="3o 3i 1o"/>
    </vehicle>
    <vehicle id="h20c1:1" type="default" depart="442.00" departPos="125.13" arrivalPos="230.04" arrivalSpeed="0.00">
        <route edges="1i 4o"/>
    </vehicle>
    <vehicle id="h139c1:1" type="default" depart="442.00" departPos="232.04" arrivalPos="344.28" arrivalSpeed="0.00">
        <route edges="2i 3o"/>
    </vehicle>
    <vehicle id="h288c1:1" type="default" depart="442.00" departPos="130.73" arrivalPos="241.17" arrivalSpeed="0.00">
        <route edges="3i 4o"/>
    </vehicle>
    <vehicle id="carIn3:1" type="default" depart="442.00" departPos="243.00" arrivalPos="304.90" arrivalSpeed="0.00">
        <route edges="3i 1o 1i"/>
    </vehicle>
    <vehicle id="h132c1:1" type="default" depart="443.00" departPos="478.45" arrivalPos="60.70" arrivalSpeed="0.00">
        <route edges="2i 3o 3i"/>
    </vehicle>
    <vehicle id="h264c2:1" type="default" depart="443.00" departPos="80.63" arrivalPos="131.87" arrivalSpeed="0.00">
        <route edges="3i 2o"/>
    </vehicle>
    <vehicle id="h267c1:1" type="default" depart="443.00" departPos="128.46" arrivalPos="66.53" arrivalSpeed="0.00">
        <route edges="3i 1o"/>
    </vehicle>
    <vehicle id="h318c1:1" type="default" depart="443.00" departPos="424.96" arrivalPos="452.59" arrivalSpeed="0.00">
        <route edges="3o 3i 2o 2i"/>
    </vehicle>
    <vehicle id="carIn116:1" type="default" depart="443.00" departPos="243.00" arrivalPos="138.40" arrivalSpeed="0.00">
        <route edges="4i 1o 1i"/>
    </vehicle>
    <vehicle id="carIn48:1" type="default" depart="444.00" departPos="243.00" arrivalPos="344.98" arrivalSpeed="0.00">
        <route edges="2i 3o"/>
    </vehicle>
    <vehicle id="h40c2:1" type="default" depart="445.00" departPos="115.88" arrivalPos="291.99" arrivalSpeed="0.00">
        <route edges="1i 4o 4i"/>
    </vehicle>
    <vehicle id="h311c1:1" type="default" depart="445.00" departPos="118.94" arrivalPos="204.29" arrivalSpeed="0.00">
        <route edges="3i 4o"/>
    </vehicle>
    <vehicle id="h427c1:1" type="default" depart="445.00" departPos="404.68" arrivalPos="413.14" arrivalSpeed="0.00">
        <route edges="4i 3o"/>
    </vehicle>
    <vehicle id="h406c1:1" type="default" depart="446.00" departPos="382.46" arrivalPos="82.21" arrivalSpeed="0.00">
        <route edges="4i 3o 3i"/>
    </vehicle>
    <vehicle id="carIn165:1" type="default" depart="446.00" departPos="243.00" arrivalPos="147.03" arrivalSpeed="0.00">
        <route edges="1i 2o 2i"/>
    </vehicle>
    <vehicle id="carIn186:1" type="default" depart="446.00" departPos="243.00" arrivalPos="340.91" arrivalSpeed="0.00">
        <route edges="1i 4o"/>
    </vehicle>
    <vehicle id="h269c1:1" type="default" depart="447.00" departPos="447.79" arrivalPos="30.93" arrivalSpeed="0.00">
        <route edges="3i"/>
    </vehicle>
    <vehicle id="h294c1:1" type="default" depart="447.00" departPos="152.36" arrivalPos="243.00" arrivalSpeed="0.00">
        <route edges="3i 4o 4i"/>
    </vehicle>
    <vehicle id="h365c1:1" type="default" depart="447.00" departPos="401.41" arrivalPos="375.19" arrivalSpeed="0.00">
        <route edges="3o 3i 2o 2i"/>
    </vehicle>
    <vehicle id="h490c1:1" type="default" depart="448.00" departPos="47.80" arrivalPos="78.43" arrivalSpeed="0.00">
        <route edges="4o 4i 3o 3i"/>
    </vehicle>
    <vehicle id="carIn145:1" type="default" depart="448.00" departPos="0.00" arrivalPos="75.70" arrivalSpeed="0.00">
        <route edges="3o 3i 2o 2i"/>
    </vehicle>
    <vehicle id="h257c1:1" type="default" depart="449.00" departPos="187.51" arrivalPos="279.33" arrivalSpeed="0.00">
        <route edges="3i 4o"/>
    </vehicle>
    <vehicle id="carIn57:1" type="default" depart="449.00" departPos="243.00" arrivalPos="328.87" arrivalSpeed="0.00">
        <route edges="1i 4o"/>
    </vehicle>
    <vehicle id="h343c1:1" type="default" depart="452.00" departPos="21.60" arrivalPos="381.08" arrivalSpeed="0.00">
        <route edges="3o 3i 1o"/>
    </vehicle>
    <vehicle id="carIn105:1" type="default" depart="452.00" departPos="243.00" arrivalPos="319.41" arrivalSpeed="0.00">
        <route edges="3i 4o"/>
    </vehicle>
    <vehicle id="h417c1:1" type="default" depart="453.00" departPos="425.36" arrivalPos="395.59" arrivalSpeed="0.00">
        <route edges="4i 1o"/>
    </vehicle>
    <vehicle id="h123c1:1" type="default" depart="454.00" departPos="380.75" arrivalPos="369.84" arrivalSpeed="0.00">
        <route edges="1o 1i 2o 2i"/>
    </vehicle>
    <vehicle id="carIn44:1" type="default" depart="454.00" departPos="243.00" arrivalPos="312.75" arrivalSpeed="0.00">
        <route edges="4i 3o"/>
    </vehicle>
    <vehicle id="carIn91:1" type="default" depart="455.00" departPos="243.00" arrivalPos="178.29" arrivalSpeed="0.00">
        <route edges="3i 4o 4i"/>
    </vehicle>
    <vehicle id="carIn34:1" type="default" depart="456.00" departPos="243.00" arrivalPos="181.21" arrivalSpeed="0.00">
        <route edges="3i 4o 4i"/>
    </vehicle>