<?xml version="1.0" ?>
<configuration>
   <input>
      <net-file value="cross.net.xml"/>
      <route-files value="cross.rou.xml"/>
   </input>
   <time>
      <begin value="0.0"/>
      <end value="3600.0"/>
   </time>
</configuration>
