<?xml version="1.0" encoding="UTF-8"?>

<!-- generated on 04/04/18 11:51:30 by SUMO activitygen Version 0.31.0
<?xml version="1.0" encoding="UTF-8"?>

<configuration xmlns:xsi="http://www.w3.org/2001/XMLSchema-instance" xsi:noNamespaceSchemaLocation="http://sumo.dlr.de/xsd/activitygenConfiguration.xsd">

    <input>
        <net-file value="C:\Users\Bryan\Documents\GitHub\core\ts_core\excel_parser/cross.net.xml"/>
        <stat-file value="C:\Users\Bryan\Documents\GitHub\core\ts_core\excel_parser/cross.stat.xml"/>
    </input>

    <output>
        <output-file value="C:\Users\Bryan\Documents\GitHub\core\ts_core\excel_parser/cross.trips.rou.xml"/>
    </output>

    <random_number>
        <random value="true"/>
    </random_number>

</configuration>
-->

<routes xmlns:xsi="http://www.w3.org/2001/XMLSchema-instance" xsi:noNamespaceSchemaLocation="http://sumo.dlr.de/xsd/routes_file.xsd">
    <vType id="default" vClass="passenger" color="red"/>
    <vType id="random" vClass="passenger" color="blue"/>
    <vType id="bus" vClass="bus" color="green"/>

    <trip id="h91c1:1" type="default" depart="264" departPos="446.37" arrivalPos="466.81" arrivalSpeed="0.00" from="1o" to="3o"/>
    <trip id="h41c1:1" type="default" depart="312" departPos="92.00" arrivalPos="387.48" arrivalSpeed="0.00" from="1i" to="3o"/>
    <trip id="h337c1:1" type="default" depart="324" departPos="308.01" arrivalPos="443.67" arrivalSpeed="0.00" from="3o" to="1o"/>
    <trip id="h15c1:1" type="default" depart="330" departPos="168.72" arrivalPos="414.03" arrivalSpeed="0.00" from="1i" to="3o"/>
    <trip id="h276c1:1" type="default" depart="332" departPos="188.82" arrivalPos="59.63" arrivalSpeed="0.00" from="3i" to="1i"/>
    <trip id="h359c2:1" type="default" depart="336" departPos="371.78" arrivalPos="346.14" arrivalSpeed="0.00" from="3o" to="1o"/>
    <trip id="carIn44:1" type="default" depart="340" departPos="243.00" arrivalPos="26.87" arrivalSpeed="0.00" from="2i" to="4i"/>
    <trip id="carIn80:1" type="default" depart="348" departPos="243.00" arrivalPos="438.54" arrivalSpeed="0.00" from="1i" to="3o"/>
    <trip id="carIn171:1" type="default" depart="348" departPos="243.00" arrivalPos="49.82" arrivalSpeed="0.00" from="3i" to="1i"/>
    <trip id="h72c1:1" type="default" depart="353" departPos="211.45" arrivalPos="27.65" arrivalSpeed="0.00" from="1o" to="3i"/>
    <trip id="h284c1:1" type="default" depart="353" departPos="63.10" arrivalPos="243.00" arrivalSpeed="0.00" from="3i" to="1i"/>
    <trip id="h83c1:1" type="default" depart="354" departPos="484.28" arrivalPos="461.55" arrivalSpeed="0.00" from="1o" to="4o"/>
    <trip id="carIn52:1" type="default" depart="354" departPos="243.00" arrivalPos="63.79" arrivalSpeed="0.00" from="4i" to="2i"/>
    <trip id="h55c1:1" type="default" depart="355" departPos="242.94" arrivalPos="420.71" arrivalSpeed="0.00" from="1i" to="3o"/>
    <trip id="h322c1:1" type="default" depart="358" departPos="408.31" arrivalPos="249.86" arrivalSpeed="0.00" from="3o" to="1o"/>
    <trip id="carIn129:1" type="default" depart="359" departPos="243.00" arrivalPos="78.73" arrivalSpeed="0.00" from="3i" to="1i"/>
    <trip id="h174c1:1" type="default" depart="362" departPos="36.69" arrivalPos="463.53" arrivalSpeed="0.00" from="2i" to="3o"/>
    <trip id="h76c1:1" type="default" depart="364" departPos="397.37" arrivalPos="243.00" arrivalSpeed="0.00" from="1o" to="3i"/>
    <trip id="h86c2:1" type="default" depart="365" departPos="443.62" arrivalPos="292.16" arrivalSpeed="0.00" from="1o" to="3i"/>
    <trip id="h14c1:1" type="default" depart="366" departPos="238.81" arrivalPos="387.27" arrivalSpeed="0.00" from="1i" to="3o"/>
    <trip id="h2c1:1" type="default" depart="367" departPos="337.76" arrivalPos="5.23" arrivalSpeed="0.00" from="1i" to="3i"/>
    <trip id="h245c1:1" type="default" depart="367" departPos="405.01" arrivalPos="2.47" arrivalSpeed="0.00" from="2o" to="1i"/>
    <trip id="h57c1:1" type="default" depart="370" departPos="31.53" arrivalPos="319.53" arrivalSpeed="0.00" from="1i" to="3i"/>
    <trip id="h372c1:1" type="default" depart="372" departPos="417.12" arrivalPos="459.52" arrivalSpeed="0.00" from="3o" to="4o"/>
    <trip id="h52c1:1" type="default" depart="380" departPos="7.88" arrivalPos="132.62" arrivalSpeed="0.00" from="1i" to="4i"/>
    <trip id="carIn17:1" type="default" depart="380" departPos="243.00" arrivalPos="352.24" arrivalSpeed="0.00" from="2i" to="4o"/>
    <trip id="h263c1:1" type="default" depart="381" departPos="41.23" arrivalPos="94.79" arrivalSpeed="0.00" from="3i" to="4i"/>
    <trip id="h36c1:1" type="default" depart="382" departPos="1.33" arrivalPos="151.27" arrivalSpeed="0.00" from="1i" to="4i"/>
    <trip id="h280c2:1" type="default" depart="382" departPos="54.87" arrivalPos="159.26" arrivalSpeed="0.00" from="3i" to="1o"/>
    <trip id="h321c1:1" type="default" depart="383" departPos="434.28" arrivalPos="399.24" arrivalSpeed="0.00" from="3o" to="2o"/>
    <trip id="h359c1:1" type="default" depart="383" departPos="371.78" arrivalPos="28.84" arrivalSpeed="0.00" from="3o" to="4i"/>
    <trip id="h44c1:1" type="default" depart="385" departPos="64.15" arrivalPos="327.55" arrivalSpeed="0.00" from="1i" to="3i"/>
    <trip id="carIn143:1" type="default" depart="386" departPos="243.00" arrivalPos="336.94" arrivalSpeed="0.00" from="1i" to="3o"/>
    <trip id="h141c1:1" type="default" depart="388" departPos="87.42" arrivalPos="414.29" arrivalSpeed="0.00" from="2i" to="3o"/>
    <trip id="h165c1:1" type="default" depart="388" departPos="82.45" arrivalPos="80.12" arrivalSpeed="0.00" from="2i" to="1i"/>
    <trip id="h406c1:1" type="default" depart="388" departPos="178.37" arrivalPos="1.44" arrivalSpeed="0.00" from="4i" to="3i"/>
    <trip id="h329c1:1" type="default" depart="389" departPos="478.72" arrivalPos="318.11" arrivalSpeed="0.00" from="3o" to="4o"/>
    <trip id="h339c1:1" type="default" depart="389" departPos="369.55" arrivalPos="50.06" arrivalSpeed="0.00" from="3o" to="2i"/>
    <trip id="h33c1:1" type="default" depart="390" departPos="177.31" arrivalPos="479.01" arrivalSpeed="0.00" from="1i" to="4o"/>
    <trip id="h75c1:1" type="default" depart="390" departPos="412.05" arrivalPos="396.82" arrivalSpeed="0.00" from="1o" to="2o"/>
    <trip id="h113c1:1" type="default" depart="390" departPos="447.60" arrivalPos="356.39" arrivalSpeed="0.00" from="1o" to="2o"/>
    <trip id="h68c1:1" type="default" depart="392" departPos="284.81" arrivalPos="361.45" arrivalSpeed="0.00" from="1i" to="3o"/>
    <trip id="carIn150:1" type="default" depart="392" departPos="243.00" arrivalPos="168.45" arrivalSpeed="0.00" from="2i" to="4i"/>
    <trip id="carIn95:1" type="default" depart="394" departPos="243.00" arrivalPos="315.17" arrivalSpeed="0.00" from="1i" to="3o"/>
    <trip id="carIn53:1" type="default" depart="395" departPos="243.00" arrivalPos="177.17" arrivalSpeed="0.00" from="3i" to="1i"/>
    <trip id="h127c1:1" type="default" depart="396" departPos="463.77" arrivalPos="182.69" arrivalSpeed="0.00" from="1o" to="2i"/>
    <trip id="h474c1:1" type="default" depart="396" departPos="317.94" arrivalPos="456.22" arrivalSpeed="0.00" from="4o" to="1o"/>
    <trip id="h136c1:1" type="default" depart="397" departPos="90.55" arrivalPos="104.73" arrivalSpeed="0.00" from="2i" to="3i"/>
    <trip id="h261c1:1" type="default" depart="399" departPos="92.94" arrivalPos="150.28" arrivalSpeed="0.00" from="3i" to="1o"/>
    <trip id="carIn107:1" type="default" depart="399" departPos="243.00" arrivalPos="302.65" arrivalSpeed="0.00" from="4i" to="2o"/>
    <trip id="h487c1:1" type="default" depart="400" departPos="361.20" arrivalPos="405.86" arrivalSpeed="0.00" from="4o" to="1o"/>
    <trip id="carIn18:1" type="default" depart="400" departPos="243.00" arrivalPos="484.92" arrivalSpeed="0.00" from="2i" to="1o"/>
    <trip id="carIn116:1" type="default" depart="400" departPos="243.00" arrivalPos="1.67" arrivalSpeed="0.00" from="3i" to="2i"/>
    <trip id="h295c1:1" type="default" depart="401" departPos="95.36" arrivalPos="371.40" arrivalSpeed="0.00" from="3i" to="2o"/>
    <trip id="h330c1:1" type="default" depart="401" departPos="412.31" arrivalPos="129.17" arrivalSpeed="0.00" from="3o" to="1o"/>
    <trip id="carIn28:1" type="default" depart="403" departPos="243.00" arrivalPos="475.87" arrivalSpeed="0.00" from="3i" to="4o"/>
    <trip id="carIn195:1" type="default" depart="403" departPos="243.00" arrivalPos="12.33" arrivalSpeed="0.00" from="4i" to="3i"/>
    <trip id="h9c1:1" type="default" depart="404" departPos="9.63" arrivalPos="253.16" arrivalSpeed="0.00" from="1i" to="4i"/>
    <trip id="h121c1:1" type="default" depart="404" departPos="484.50" arrivalPos="220.34" arrivalSpeed="0.00" from="1o" to="4o"/>
    <trip id="h448c1:1" type="default" depart="405" departPos="325.01" arrivalPos="68.33" arrivalSpeed="0.00" from="4o" to="3i"/>
    <trip id="h90c1:1" type="default" depart="406" departPos="351.43" arrivalPos="177.24" arrivalSpeed="0.00" from="1o" to="3o"/>
    <trip id="carIn96:1" type="default" depart="407" departPos="243.00" arrivalPos="278.67" arrivalSpeed="0.00" from="1i" to="3o"/>
    <trip id="carIn123:1" type="default" depart="407" departPos="243.00" arrivalPos="208.70" arrivalSpeed="0.00" from="1i" to="3i"/>
    <trip id="carIn156:1" type="default" depart="408" departPos="243.00" arrivalPos="277.06" arrivalSpeed="0.00" from="3i" to="1o"/>
    <trip id="carIn185:1" type="default" depart="408" departPos="243.00" arrivalPos="212.58" arrivalSpeed="0.00" from="1i" to="3i"/>
    <trip id="h290c1:1" type="default" depart="409" departPos="53.36" arrivalPos="205.63" arrivalSpeed="0.00" from="3i" to="4i"/>
    <trip id="h161c1:1" type="default" depart="410" departPos="113.46" arrivalPos="133.46" arrivalSpeed="0.00" from="2i" to="1i"/>
    <trip id="carIn83:1" type="default" depart="410" departPos="243.00" arrivalPos="454.62" arrivalSpeed="0.00" from="1i" to="4o"/>
    <trip id="carIn126:1" type="default" depart="410" departPos="243.00" arrivalPos="33.67" arrivalSpeed="0.00" from="4i" to="1i"/>
    <trip id="carIn199:1" type="default" depart="410" departPos="243.00" arrivalPos="454.90" arrivalSpeed="0.00" from="1i" to="2o"/>
    <trip id="h86c1:1" type="default" depart="411" departPos="443.62" arrivalPos="227.00" arrivalSpeed="0.00" from="1o" to="4i"/>
    <trip id="h208c1:1" type="default" depart="411" departPos="286.39" arrivalPos="428.55" arrivalSpeed="0.00" from="2o" to="1o"/>
    <trip id="carIn43:1" type="default" depart="413" departPos="243.00" arrivalPos="42.47" arrivalSpeed="0.00" from="1i" to="2i"/>
    <trip id="carIn172:1" type="default" depart="413" departPos="243.00" arrivalPos="42.79" arrivalSpeed="0.00" from="3i" to="2i"/>
    <trip id="carIn196:1" type="default" depart="413" departPos="243.00" arrivalPos="41.30" arrivalSpeed="0.00" from="1i" to="2i"/>
    <trip id="h261c2:1" type="default" depart="414" departPos="92.94" arrivalPos="376.98" arrivalSpeed="0.00" from="3i" to="1i"/>
    <trip id="h137c1:1" type="default" depart="416" departPos="302.87" arrivalPos="22.39" arrivalSpeed="0.00" from="2i" to="3i"/>
    <trip id="h260c1:1" type="default" depart="416" departPos="148.86" arrivalPos="161.93" arrivalSpeed="0.00" from="3i" to="1o"/>
    <trip id="h65c1:1" type="default" depart="418" departPos="166.99" arrivalPos="376.81" arrivalSpeed="0.00" from="1i" to="4o"/>
    <trip id="carIn163:1" type="default" depart="419" departPos="243.00" arrivalPos="426.43" arrivalSpeed="0.00" from="2i" to="3o"/>
    <trip id="h96c1:1" type="default" depart="420" departPos="362.84" arrivalPos="328.87" arrivalSpeed="0.00" from="1o" to="2o"/>
    <trip id="carIn39:1" type="default" depart="420" departPos="243.00" arrivalPos="243.00" arrivalSpeed="0.00" from="1i" to="3i"/>
    <trip id="carIn41:1" type="default" depart="420" departPos="243.00" arrivalPos="243.00" arrivalSpeed="0.00" from="4i" to="2i"/>
    <trip id="carIn72:1" type="default" depart="420" departPos="243.00" arrivalPos="243.00" arrivalSpeed="0.00" from="4i" to="2i"/>
    <trip id="carIn161:1" type="default" depart="421" departPos="0.00" arrivalPos="488.48" arrivalSpeed="0.00" from="2o" to="1o"/>
    <trip id="h128c1:1" type="default" depart="422" departPos="395.61" arrivalPos="399.43" arrivalSpeed="0.00" from="1o" to="3i"/>
    <trip id="h328c1:1" type="default" depart="422" departPos="483.58" arrivalPos="473.22" arrivalSpeed="0.00" from="3o" to="4i"/>
    <trip id="carIn109:1" type="default" depart="422" departPos="243.00" arrivalPos="71.64" arrivalSpeed="0.00" from="1i" to="2i"/>
    <trip id="h89c1:1" type="default" depart="423" departPos="481.74" arrivalPos="484.19" arrivalSpeed="0.00" from="1o" to="2i"/>
    <trip id="h189c1:1" type="default" depart="423" departPos="473.26" arrivalPos="6.57" arrivalSpeed="0.00" from="2i" to="1i"/>
    <trip id="h326c1:1" type="default" depart="423" departPos="349.59" arrivalPos="332.01" arrivalSpeed="0.00" from="3o" to="2o"/>
    <trip id="h438c1:1" type="default" depart="423" departPos="481.55" arrivalPos="5.83" arrivalSpeed="0.00" from="4i" to="3i"/>
    <trip id="carIn67:1" type="default" depart="423" departPos="243.00" arrivalPos="237.47" arrivalSpeed="0.00" from="1i" to="3o"/>
    <trip id="h34c1:1" type="default" depart="424" departPos="129.25" arrivalPos="170.41" arrivalSpeed="0.00" from="1i" to="4i"/>
    <trip id="h317c1:1" type="default" depart="424" departPos="345.67" arrivalPos="336.47" arrivalSpeed="0.00" from="3i" to="1o"/>
    <trip id="h385c1:1" type="default" depart="424" departPos="126.56" arrivalPos="312.22" arrivalSpeed="0.00" from="4i" to="1o"/>
    <trip id="h46c1:1" type="default" depart="425" departPos="161.57" arrivalPos="340.35" arrivalSpeed="0.00" from="1i" to="3i"/>
    <trip id="carIn16:1" type="default" depart="425" departPos="243.00" arrivalPos="230.81" arrivalSpeed="0.00" from="2i" to="4o"/>
    <trip id="carIn50:1" type="default" depart="425" departPos="0.00" arrivalPos="475.44" arrivalSpeed="0.00" from="2o" to="2o"/>
    <trip id="h429c2:1" type="default" depart="426" departPos="482.14" arrivalPos="15.19" arrivalSpeed="0.00" from="4i" to="1i"/>
    <trip id="h28c1:1" type="default" depart="427" departPos="469.00" arrivalPos="36.57" arrivalSpeed="0.00" from="1i" to="3i"/>
    <trip id="h81c1:1" type="default" depart="427" departPos="379.21" arrivalPos="91.62" arrivalSpeed="0.00" from="1o" to="3o"/>
    <trip id="h190c1:1" type="default" depart="427" departPos="384.61" arrivalPos="459.12" arrivalSpeed="0.00" from="2i" to="1o"/>
    <trip id="h74c1:1" type="default" depart="428" departPos="399.28" arrivalPos="243.00" arrivalSpeed="0.00" from="1o" to="4i"/>
    <trip id="carIn178:1" type="default" depart="428" departPos="243.00" arrivalPos="399.59" arrivalSpeed="0.00" from="3i" to="4o"/>
    <trip id="h248c1:1" type="default" depart="429" departPos="171.79" arrivalPos="56.79" arrivalSpeed="0.00" from="2o" to="1i"/>
    <trip id="h429c1:1" type="default" depart="429" departPos="482.14" arrivalPos="22.80" arrivalSpeed="0.00" from="4i" to="3i"/>
    <trip id="h94c1:1" type="default" depart="430" departPos="431.47" arrivalPos="165.72" arrivalSpeed="0.00" from="1o" to="4o"/>
    <trip id="h453c1:1" type="default" depart="430" departPos="213.23" arrivalPos="77.53" arrivalSpeed="0.00" from="4o" to="3i"/>
    <trip id="carIn189:1" type="default" depart="430" departPos="0.00" arrivalPos="462.50" arrivalSpeed="0.00" from="1o" to="3o"/>
    <trip id="carIn191:1" type="default" depart="430" departPos="0.00" arrivalPos="26.79" arrivalSpeed="0.00" from="4o" to="3i"/>
    <trip id="carIn56:1" type="default" depart="431" departPos="243.00" arrivalPos="387.69" arrivalSpeed="0.00" from="1i" to="4o"/>
    <trip id="carIn112:1" type="default" depart="431" departPos="0.00" arrivalPos="28.28" arrivalSpeed="0.00" from="3o" to="1i"/>
    <trip id="carIn162:1" type="default" depart="431" departPos="243.00" arrivalPos="213.58" arrivalSpeed="0.00" from="2i" to="4o"/>
    <trip id="carIn187:1" type="default" depart="431" departPos="243.00" arrivalPos="274.07" arrivalSpeed="0.00" from="1i" to="3i"/>
    <trip id="h230c1:1" type="default" depart="432" departPos="21.79" arrivalPos="30.73" arrivalSpeed="0.00" from="2o" to="3i"/>
    <trip id="h358c1:1" type="default" depart="432" departPos="382.79" arrivalPos="75.02" arrivalSpeed="0.00" from="3o" to="1o"/>
    <trip id="carIn138:1" type="default" depart="432" departPos="243.00" arrivalPos="386.13" arrivalSpeed="0.00" from="1i" to="2o"/>
    <trip id="carIn114:1" type="default" depart="433" departPos="243.00" arrivalPos="107.00" arrivalSpeed="0.00" from="2i" to="1i"/>
    <trip id="carIn121:1" type="default" depart="433" departPos="243.00" arrivalPos="280.28" arrivalSpeed="0.00" from="1i" to="3i"/>
    <trip id="h262c1:1" type="default" depart="434" departPos="50.82" arrivalPos="117.13" arrivalSpeed="0.00" from="3i" to="2o"/>
    <trip id="h339c2:1" type="default" depart="435" departPos="369.55" arrivalPos="254.93" arrivalSpeed="0.00" from="3o" to="2o"/>
    <trip id="carIn6:1" type="default" depart="435" departPos="243.00" arrivalPos="285.79" arrivalSpeed="0.00" from="2i" to="4i"/>
    <trip id="carIn100:1" type="default" depart="435" departPos="243.00" arrivalPos="377.50" arrivalSpeed="0.00" from="3i" to="2o"/>
    <trip id="h76c2:1" type="default" depart="436" departPos="397.37" arrivalPos="50.37" arrivalSpeed="0.00" from="1o" to="3o"/>
    <trip id="h283c1:1" type="default" depart="436" departPos="146.42" arrivalPos="285.07" arrivalSpeed="0.00" from="3i" to="2o"/>
    <trip id="h353c1:1" type="default" depart="436" departPos="414.88" arrivalPos="325.94" arrivalSpeed="0.00" from="3o" to="2i"/>
    <trip id="carIn85:1" type="default" depart="436" departPos="243.00" arrivalPos="371.87" arrivalSpeed="0.00" from="4i" to="1o"/>
    <trip id="h47c1:1" type="default" depart="437" departPos="473.67" arrivalPos="429.63" arrivalSpeed="0.00" from="1i" to="3o"/>
    <trip id="h158c1:1" type="default" depart="437" departPos="326.57" arrivalPos="74.56" arrivalSpeed="0.00" from="2i" to="3i"/>
    <trip id="h175c1:1" type="default" depart="437" departPos="470.49" arrivalPos="442.44" arrivalSpeed="0.00" from="2i" to="3o"/>
    <trip id="h254c2:1" type="default" depart="437" departPos="203.14" arrivalPos="93.37" arrivalSpeed="0.00" from="2o" to="3i"/>
    <trip id="h282c1:1" type="default" depart="437" departPos="89.25" arrivalPos="45.72" arrivalSpeed="0.00" from="3i" to="1o"/>
    <trip id="h349c1:1" type="default" depart="437" departPos="10.74" arrivalPos="453.45" arrivalSpeed="0.00" from="3o" to="3o"/>
    <trip id="h50c1:1" type="default" depart="438" departPos="73.56" arrivalPos="337.23" arrivalSpeed="0.00" from="1i" to="4i"/>
    <trip id="h110c1:1" type="default" depart="438" departPos="405.08" arrivalPos="35.71" arrivalSpeed="0.00" from="1o" to="3o"/>
    <trip id="h61c1:1" type="default" depart="439" departPos="374.62" arrivalPos="324.82" arrivalSpeed="0.00" from="1i" to="3o"/>
    <trip id="h111c1:1" type="default" depart="439" departPos="428.38" arrivalPos="98.30" arrivalSpeed="0.00" from="1o" to="2o"/>
    <trip id="carIn5:1" type="default" depart="439" departPos="243.00" arrivalPos="295.15" arrivalSpeed="0.00" from="2i" to="4i"/>
    <trip id="carIn11:1" type="default" depart="439" departPos="243.00" arrivalPos="123.97" arrivalSpeed="0.00" from="2i" to="1i"/>
    <trip id="carIn73:1" type="default" depart="439" departPos="243.00" arrivalPos="191.72" arrivalSpeed="0.00" from="4i" to="2o"/>
    <trip id="carIn124:1" type="default" depart="439" departPos="243.00" arrivalPos="192.40" arrivalSpeed="0.00" from="2i" to="4o"/>
    <trip id="carIn183:1" type="default" depart="439" departPos="243.00" arrivalPos="127.06" arrivalSpeed="0.00" from="1i" to="2i"/>
    <trip id="h94c2:1" type="default" depart="441" departPos="431.47" arrivalPos="443.89" arrivalSpeed="0.00" from="1o" to="2i"/>
    <trip id="h168c1:1" type="default" depart="441" departPos="441.84" arrivalPos="431.53" arrivalSpeed="0.00" from="2i" to="1o"/>
    <trip id="carIn47:1" type="default" depart="441" departPos="243.00" arrivalPos="355.27" arrivalSpeed="0.00" from="4i" to="1o"/>
    <trip id="carIn113:1" type="default" depart="441" departPos="243.00" arrivalPos="355.03" arrivalSpeed="0.00" from="3i" to="4o"/>
    <trip id="carIn135:1" type="default" depart="441" departPos="0.00" arrivalPos="433.13" arrivalSpeed="0.00" from="4o" to="3o"/>
    <trip id="carIn200:1" type="default" depart="441" departPos="243.00" arrivalPos="357.15" arrivalSpeed="0.00" from="1i" to="2o"/>
    <trip id="h199c1:1" type="default" depart="442" departPos="43.60" arrivalPos="60.17" arrivalSpeed="0.00" from="2o" to="3i"/>
    <trip id="h405c1:1" type="default" depart="442" departPos="440.09" arrivalPos="60.75" arrivalSpeed="0.00" from="4i" to="3i"/>
    <trip id="h13c1:1" type="default" depart="443" departPos="71.25" arrivalPos="397.15" arrivalSpeed="0.00" from="1i" to="4i"/>
    <trip id="h254c1:1" type="default" depart="443" departPos="203.14" arrivalPos="375.00" arrivalSpeed="0.00" from="2o" to="3o"/>
    <trip id="h415c1:1" type="default" depart="443" departPos="438.01" arrivalPos="63.03" arrivalSpeed="0.00" from="4i" to="1i"/>
    <trip id="carIn34:1" type="default" depart="443" departPos="0.00" arrivalPos="427.30" arrivalSpeed="0.00" from="2o" to="4o"/>
    <trip id="carIn175:1" type="default" depart="443" departPos="0.00" arrivalPos="428.43" arrivalSpeed="0.00" from="2o" to="4o"/>
    <trip id="h40c1:1" type="default" depart="444" departPos="70.74" arrivalPos="68.74" arrivalSpeed="0.00" from="1i" to="4o"/>
    <trip id="h112c1:1" type="default" depart="444" departPos="415.09" arrivalPos="394.56" arrivalSpeed="0.00" from="1o" to="2i"/>
    <trip id="carIn101:1" type="default" depart="444" departPos="243.00" arrivalPos="308.16" arrivalSpeed="0.00" from="2i" to="4i"/>
    <trip id="h213c1:1" type="default" depart="445" departPos="140.79" arrivalPos="91.60" arrivalSpeed="0.00" from="2o" to="1i"/>
    <trip id="carIn59:1" type="default" depart="445" departPos="243.00" arrivalPos="144.72" arrivalSpeed="0.00" from="4i" to="1i"/>
    <trip id="h156c1:1" type="default" depart="446" departPos="312.77" arrivalPos="109.27" arrivalSpeed="0.00" from="2i" to="3i"/>
    <trip id="carIn99:1" type="default" depart="446" departPos="243.00" arrivalPos="315.51" arrivalSpeed="0.00" from="1i" to="3i"/>
    <trip id="carIn153:1" type="default" depart="446" departPos="243.00" arrivalPos="174.60" arrivalSpeed="0.00" from="4i" to="2o"/>
    <trip id="h459c1:1" type="default" depart="447" departPos="80.74" arrivalPos="79.23" arrivalSpeed="0.00" from="4o" to="1i"/>
    <trip id="carIn108:1" type="default" depart="447" departPos="0.00" arrivalPos="417.35" arrivalSpeed="0.00" from="1o" to="2o"/>
    <trip id="h443c1:1" type="default" depart="448" departPos="72.42" arrivalPos="80.86" arrivalSpeed="0.00" from="4o" to="1i"/>
    <trip id="carIn9:1" type="default" depart="448" departPos="243.00" arrivalPos="332.54" arrivalSpeed="0.00" from="3i" to="2o"/>
    <trip id="carIn122:1" type="default" depart="448" departPos="0.00" arrivalPos="412.99" arrivalSpeed="0.00" from="1o" to="2o"/>
    <trip id="carIn176:1" type="default" depart="448" departPos="0.00" arrivalPos="412.76" arrivalSpeed="0.00" from="1o" to="1o"/>
    <trip id="h471c1:1" type="default" depart="449" departPos="18.85" arrivalPos="411.04" arrivalSpeed="0.00" from="4o" to="3o"/>
    <trip id="carIn110:1" type="default" depart="450" departPos="0.00" arrivalPos="407.44" arrivalSpeed="0.00" from="3o" to="1o"/>
    <trip id="h446c1:1" type="default" depart="451" departPos="89.36" arrivalPos="394.98" arrivalSpeed="0.00" from="4o" to="3o"/>
    <trip id="carIn133:1" type="default" depart="451" departPos="243.00" arrivalPos="327.71" arrivalSpeed="0.00" from="4i" to="2i"/>
    <trip id="carIn173:1" type="default" depart="452" departPos="243.00" arrivalPos="158.00" arrivalSpeed="0.00" from="4i" to="2o"/>
    <trip id="h280c1:1" type="default" depart="454" departPos="54.87" arrivalPos="36.66" arrivalSpeed="0.00" from="3i" to="3o"/>
    <trip id="carIn97:1" type="default" depart="455" departPos="243.00" arrivalPos="340.62" arrivalSpeed="0.00" from="4i" to="2i"/>
    <trip id="h201c1:1" type="default" depart="456" departPos="170.53" arrivalPos="351.89" arrivalSpeed="0.00" from="2o" to="1o"/>
    <trip id="h223c1:1" type="default" depart="456" departPos="57.67" arrivalPos="99.94" arrivalSpeed="0.00" from="2o" to="1i"/>
    <trip id="carIn186:1" type="default" depart="458" departPos="243.00" arrivalPos="298.87" arrivalSpeed="0.00" from="3i" to="4o"/>
    <trip id="h22c1:1" type="default" depart="459" departPos="159.76" arrivalPos="290.40" arrivalSpeed="0.00" from="1i" to="2i"/>
    <trip id="h310c1:1" type="default" depart="459" departPos="113.42" arrivalPos="406.69" arrivalSpeed="0.00" from="3i" to="4i"/>
    <trip id="carIn79:1" type="default" depart="461" departPos="0.00" arrivalPos="379.31" arrivalSpeed="0.00" from="4o" to="4o"/>
    <trip id="carIn125:1" type="default" depart="461" departPos="0.00" arrivalPos="109.44" arrivalSpeed="0.00" from="3o" to="3i"/>
    <trip id="carIn127:1" type="default" depart="462" departPos="0.00" arrivalPos="112.82" arrivalSpeed="0.00" from="4o" to="4i"/>
    <trip id="h188c1:1" type="default" depart="463" departPos="287.29" arrivalPos="174.23" arrivalSpeed="0.00" from="2i" to="1i"/>
    <trip id="carIn3:1" type="default" depart="463" departPos="243.00" arrivalPos="208.42" arrivalSpeed="0.00" from="2i" to="1i"/>
    <trip id="carIn4:1" type="default" depart="463" departPos="243.00" arrivalPos="282.15" arrivalSpeed="0.00" from="4i" to="3o"/>
    <trip id="h130c1:1" type="default" depart="464" departPos="366.00" arrivalPos="483.68" arrivalSpeed="0.00" from="1o" to="3i"/>
    <trip id="h238c1:1" type="default" depart="467" departPos="133.79" arrivalPos="151.51" arrivalSpeed="0.00" from="2o" to="3i"/>
    <trip id="carIn24:1" type="default" depart="467" departPos="0.00" arrivalPos="125.93" arrivalSpeed="0.00" from="1o" to="1i"/>
    <trip id="carIn63:1" type="default" depart="468" departPos="243.00" arrivalPos="262.02" arrivalSpeed="0.00" from="2i" to="3o"/>
    <trip id="h345c1:1" type="default" depart="469" departPos="8.35" arrivalPos="365.97" arrivalSpeed="0.00" from="3o" to="3o"/>
    <trip id="h482c1:1" type="default" depart="469" departPos="9.69" arrivalPos="357.81" arrivalSpeed="0.00" from="4o" to="1o"/>
    <trip id="carIn21:1" type="default" depart="469" departPos="243.00" arrivalPos="260.82" arrivalSpeed="0.00" from="3i" to="4o"/>
    <trip id="carIn84:1" type="default" depart="469" departPos="243.00" arrivalPos="228.87" arrivalSpeed="0.00" from="3i" to="2i"/>
    <trip id="h58c1:1" type="default" depart="470" departPos="420.92" arrivalPos="421.09" arrivalSpeed="0.00" from="1i" to="1o"/>
    <trip id="h434c1:1" type="default" depart="470" departPos="325.27" arrivalPos="315.00" arrivalSpeed="0.00" from="4i" to="1o"/>
    <trip id="h237c1:1" type="default" depart="471" departPos="111.87" arrivalPos="155.28" arrivalSpeed="0.00" from="2o" to="3i"/>
    <trip id="carIn15:1" type="default" depart="471" departPos="243.00" arrivalPos="106.56" arrivalSpeed="0.00" from="3i" to="1o"/>
    <trip id="carIn88:1" type="default" depart="471" departPos="243.00" arrivalPos="252.12" arrivalSpeed="0.00" from="3i" to="4o"/>
    <trip id="carIn10:1" type="default" depart="472" departPos="243.00" arrivalPos="385.81" arrivalSpeed="0.00" from="4i" to="2i"/>
    <trip id="h167c1:1" type="default" depart="473" departPos="419.03" arrivalPos="339.53" arrivalSpeed="0.00" from="2i" to="1o"/>
    <trip id="carIn62:1" type="default" depart="473" departPos="243.00" arrivalPos="243.00" arrivalSpeed="0.00" from="2i" to="1i"/>
    <trip id="carIn102:1" type="default" depart="473" departPos="243.00" arrivalPos="243.00" arrivalSpeed="0.00" from="4i" to="1i"/>
    <trip id="carIn154:1" type="default" depart="473" departPos="243.00" arrivalPos="243.00" arrivalSpeed="0.00" from="1i" to="4i"/>
    <trip id="carIn157:1" type="default" depart="473" departPos="243.00" arrivalPos="243.41" arrivalSpeed="0.00" from="1i" to="2i"/>
    <trip id="h411c1:1" type="default" depart="474" departPos="376.01" arrivalPos="323.68" arrivalSpeed="0.00" from="4i" to="3o"/>
    <trip id="carIn8:1" type="default" depart="474" departPos="243.00" arrivalPos="247.29" arrivalSpeed="0.00" from="3i" to="4i"/>
    <trip id="carIn36:1" type="default" depart="474" departPos="0.00" arrivalPos="144.09" arrivalSpeed="0.00" from="4o" to="3i"/>
    <trip id="carIn64:1" type="default" depart="474" departPos="243.00" arrivalPos="248.68" arrivalSpeed="0.00" from="4i" to="1i"/>
    <trip id="carIn181:1" type="default" depart="474" departPos="0.00" arrivalPos="344.72" arrivalSpeed="0.00" from="2o" to="3o"/>
    <trip id="carIn78:1" type="default" depart="475" departPos="0.00" arrivalPos="340.25" arrivalSpeed="0.00" from="4o" to="3o"/>
    <trip id="carIn131:1" type="default" depart="475" departPos="0.00" arrivalPos="147.84" arrivalSpeed="0.00" from="4o" to="1i"/>
    <trip id="carIn91:1" type="default" depart="476" departPos="0.00" arrivalPos="152.00" arrivalSpeed="0.00" from="1o" to="2i"/>
    <trip id="carIn82:1" type="default" depart="478" departPos="0.00" arrivalPos="332.74" arrivalSpeed="0.00" from="2o" to="4o"/>
    <trip id="carIn74:1" type="default" depart="479" departPos="243.00" arrivalPos="270.26" arrivalSpeed="0.00" from="4i" to="1i"/>
    <trip id="carIn26:1" type="default" depart="480" departPos="243.00" arrivalPos="215.26" arrivalSpeed="0.00" from="2i" to="1o"/>
    <trip id="carIn7:1" type="default" depart="481" departPos="0.00" arrivalPos="323.44" arrivalSpeed="0.00" from="2o" to="1o"/>
    <trip id="carIn145:1" type="default" depart="481" departPos="0.00" arrivalPos="323.37" arrivalSpeed="0.00" from="2o" to="1o"/>
    <trip id="carIn60:1" type="default" depart="482" departPos="0.00" arrivalPos="167.82" arrivalSpeed="0.00" from="4o" to="4i"/>