<?xml version="1.0" encoding="UTF-8"?>

<!-- generated on Fri Apr 27 21:57:53 2018 by SUMO activitygen Version 0.32.0
<?xml version="1.0" encoding="UTF-8"?>

<configuration xmlns:xsi="http://www.w3.org/2001/XMLSchema-instance" xsi:noNamespaceSchemaLocation="http://sumo.dlr.de/xsd/activitygenConfiguration.xsd">

    <input>
        <net-file value="/mnt/c/my_programs/SCHOOL/MSD/GIT/core/tests/ImagineRIT/dynamic/cross.net.xml"/>
        <stat-file value="/mnt/c/my_programs/SCHOOL/MSD/GIT/core/tests/ImagineRIT/dynamic/cross.stat.xml"/>
    </input>

    <output>
        <output-file value="/mnt/c/my_programs/SCHOOL/MSD/GIT/core/tests/ImagineRIT/dynamic/cross.trips.rou.xml"/>
    </output>

    <random_number>
        <random value="true"/>
    </random_number>

</configuration>
-->

<routes xmlns:xsi="http://www.w3.org/2001/XMLSchema-instance" xsi:noNamespaceSchemaLocation="http://sumo.dlr.de/xsd/routes_file.xsd">
    <vType id="default" vClass="passenger" color="red"/>
    <vType id="random" vClass="passenger" color="blue"/>
    <vType id="bus" vClass="bus" color="green"/>

    <trip id="carIn98:1" type="default" depart="478" departPos="243.00" arrivalPos="0.07" arrivalSpeed="0.00" from="2i" to="4i"/>
    <trip id="carIn99:1" type="default" depart="478" departPos="243.00" arrivalPos="281.14" arrivalSpeed="0.00" from="4i" to="2o"/>
    <trip id="carIn355:1" type="default" depart="481" departPos="243.00" arrivalPos="274.07" arrivalSpeed="0.00" from="3i" to="1o"/>
    <trip id="carIn442:1" type="default" depart="482" departPos="243.00" arrivalPos="12.71" arrivalSpeed="0.00" from="3i" to="1i"/>
    <trip id="carIn122:1" type="default" depart="484" departPos="243.00" arrivalPos="266.31" arrivalSpeed="0.00" from="1i" to="3o"/>
    <trip id="carIn432:1" type="default" depart="484" departPos="243.00" arrivalPos="18.15" arrivalSpeed="0.00" from="4i" to="2i"/>
    <trip id="carIn255:1" type="default" depart="487" departPos="243.00" arrivalPos="24.37" arrivalSpeed="0.00" from="1i" to="3i"/>
    <trip id="carIn275:1" type="default" depart="492" departPos="243.00" arrivalPos="281.21" arrivalSpeed="0.00" from="1i" to="4o"/>
    <trip id="carIn308:1" type="default" depart="492" departPos="243.00" arrivalPos="281.71" arrivalSpeed="0.00" from="2i" to="3o"/>
    <trip id="carIn262:1" type="default" depart="493" departPos="243.00" arrivalPos="3.01" arrivalSpeed="0.00" from="1i" to="2i"/>
    <trip id="carIn302:1" type="default" depart="493" departPos="243.00" arrivalPos="276.91" arrivalSpeed="0.00" from="2i" to="1o"/>
    <trip id="carIn367:1" type="default" depart="493" departPos="0.00" arrivalPos="0.56" arrivalSpeed="0.00" from="2o" to="3i"/>
    <trip id="carIn61:1" type="default" depart="494" departPos="0.00" arrivalPos="278.51" arrivalSpeed="0.00" from="1o" to="4o"/>
    <trip id="carIn191:1" type="default" depart="494" departPos="0.00" arrivalPos="277.93" arrivalSpeed="0.00" from="2o" to="4o"/>
    <trip id="carIn292:1" type="default" depart="494" departPos="243.00" arrivalPos="5.58" arrivalSpeed="0.00" from="1i" to="4i"/>
    <trip id="carIn284:1" type="default" depart="495" departPos="243.00" arrivalPos="46.40" arrivalSpeed="0.00" from="4i" to="2i"/>
    <trip id="carIn434:1" type="default" depart="495" departPos="0.00" arrivalPos="6.89" arrivalSpeed="0.00" from="3o" to="3i"/>
    <trip id="carIn59:1" type="default" depart="496" departPos="243.00" arrivalPos="270.77" arrivalSpeed="0.00" from="1i" to="4o"/>
    <trip id="carIn74:1" type="default" depart="496" departPos="0.00" arrivalPos="272.71" arrivalSpeed="0.00" from="4o" to="4o"/>
    <trip id="carIn203:1" type="default" depart="496" departPos="243.00" arrivalPos="11.43" arrivalSpeed="0.00" from="2i" to="3i"/>
    <trip id="carIn208:1" type="default" depart="496" departPos="243.00" arrivalPos="11.08" arrivalSpeed="0.00" from="4i" to="3i"/>
    <trip id="carIn399:1" type="default" depart="496" departPos="243.00" arrivalPos="269.14" arrivalSpeed="0.00" from="1i" to="2o"/>
    <trip id="carIn408:1" type="default" depart="496" departPos="0.00" arrivalPos="8.38" arrivalSpeed="0.00" from="4o" to="3i"/>
    <trip id="carIn93:1" type="default" depart="497" departPos="243.00" arrivalPos="50.38" arrivalSpeed="0.00" from="1i" to="3i"/>
    <trip id="carIn200:1" type="default" depart="497" departPos="243.00" arrivalPos="266.49" arrivalSpeed="0.00" from="1i" to="4o"/>
    <trip id="carIn230:1" type="default" depart="497" departPos="243.00" arrivalPos="230.12" arrivalSpeed="0.00" from="2i" to="4o"/>
    <trip id="carIn238:1" type="default" depart="498" departPos="0.00" arrivalPos="14.25" arrivalSpeed="0.00" from="2o" to="1i"/>
    <trip id="carIn40:1" type="default" depart="499" departPos="0.00" arrivalPos="18.01" arrivalSpeed="0.00" from="3o" to="1i"/>
    <trip id="carIn236:1" type="default" depart="499" departPos="243.00" arrivalPos="261.24" arrivalSpeed="0.00" from="4i" to="1o"/>
    <trip id="carIn267:1" type="default" depart="499" departPos="0.00" arrivalPos="266.25" arrivalSpeed="0.00" from="1o" to="4o"/>
    <trip id="carIn413:1" type="default" depart="499" departPos="0.00" arrivalPos="265.16" arrivalSpeed="0.00" from="2o" to="3o"/>
    <trip id="carIn79:1" type="default" depart="500" departPos="0.00" arrivalPos="261.28" arrivalSpeed="0.00" from="3o" to="2o"/>
    <trip id="carIn87:1" type="default" depart="500" departPos="243.00" arrivalPos="259.48" arrivalSpeed="0.00" from="1i" to="4o"/>
    <trip id="carIn131:1" type="default" depart="500" departPos="243.00" arrivalPos="22.12" arrivalSpeed="0.00" from="1i" to="4i"/>
    <trip id="carIn256:1" type="default" depart="500" departPos="243.00" arrivalPos="58.80" arrivalSpeed="0.00" from="1i" to="3i"/>
    <trip id="carIn354:1" type="default" depart="500" departPos="243.00" arrivalPos="22.50" arrivalSpeed="0.00" from="3i" to="2i"/>
    <trip id="carIn72:1" type="default" depart="502" departPos="243.00" arrivalPos="29.00" arrivalSpeed="0.00" from="2i" to="3i"/>
    <trip id="carIn85:1" type="default" depart="502" departPos="0.00" arrivalPos="25.80" arrivalSpeed="0.00" from="2o" to="3i"/>
    <trip id="carIn395:1" type="default" depart="502" departPos="0.00" arrivalPos="256.42" arrivalSpeed="0.00" from="3o" to="2o"/>
    <trip id="carIn401:1" type="default" depart="502" departPos="0.00" arrivalPos="24.72" arrivalSpeed="0.00" from="4o" to="1i"/>
    <trip id="carIn65:1" type="default" depart="503" departPos="0.00" arrivalPos="27.94" arrivalSpeed="0.00" from="1o" to="4i"/>
    <trip id="carIn266:1" type="default" depart="503" departPos="0.00" arrivalPos="255.28" arrivalSpeed="0.00" from="3o" to="2o"/>
    <trip id="carIn342:1" type="default" depart="503" departPos="243.00" arrivalPos="252.26" arrivalSpeed="0.00" from="4i" to="3o"/>
    <trip id="carIn450:1" type="default" depart="503" departPos="0.00" arrivalPos="28.44" arrivalSpeed="0.00" from="3o" to="2i"/>
    <trip id="carIn63:1" type="default" depart="504" departPos="0.00" arrivalPos="250.92" arrivalSpeed="0.00" from="4o" to="1o"/>
    <trip id="carIn107:1" type="default" depart="504" departPos="243.00" arrivalPos="211.87" arrivalSpeed="0.00" from="3i" to="1o"/>
    <trip id="carIn359:1" type="default" depart="504" departPos="0.00" arrivalPos="251.48" arrivalSpeed="0.00" from="4o" to="1o"/>
    <trip id="carIn387:1" type="default" depart="504" departPos="0.00" arrivalPos="29.16" arrivalSpeed="0.00" from="4o" to="3i"/>
    <trip id="carIn419:1" type="default" depart="504" departPos="0.00" arrivalPos="30.05" arrivalSpeed="0.00" from="2o" to="3i"/>
    <trip id="carIn3:1" type="default" depart="505" departPos="243.00" arrivalPos="246.62" arrivalSpeed="0.00" from="1i" to="4o"/>
    <trip id="carIn173:1" type="default" depart="505" departPos="243.00" arrivalPos="245.73" arrivalSpeed="0.00" from="3i" to="2o"/>
    <trip id="carIn350:1" type="default" depart="505" departPos="243.00" arrivalPos="36.68" arrivalSpeed="0.00" from="1i" to="2i"/>
    <trip id="carIn409:1" type="default" depart="505" departPos="0.00" arrivalPos="249.63" arrivalSpeed="0.00" from="4o" to="2o"/>
    <trip id="carIn38:1" type="default" depart="506" departPos="243.00" arrivalPos="73.07" arrivalSpeed="0.00" from="2i" to="4i"/>
    <trip id="carIn68:1" type="default" depart="506" departPos="243.00" arrivalPos="37.26" arrivalSpeed="0.00" from="1i" to="2i"/>
    <trip id="carIn148:1" type="default" depart="506" departPos="243.00" arrivalPos="75.31" arrivalSpeed="0.00" from="4i" to="2i"/>
    <trip id="carIn187:1" type="default" depart="506" departPos="243.00" arrivalPos="39.58" arrivalSpeed="0.00" from="1i" to="2i"/>
    <trip id="carIn288:1" type="default" depart="506" departPos="243.00" arrivalPos="37.35" arrivalSpeed="0.00" from="1i" to="4i"/>
    <trip id="carIn405:1" type="default" depart="506" departPos="0.00" arrivalPos="245.64" arrivalSpeed="0.00" from="2o" to="1o"/>
    <trip id="carIn139:1" type="default" depart="507" departPos="243.00" arrivalPos="240.78" arrivalSpeed="0.00" from="1i" to="4o"/>
    <trip id="carIn149:1" type="default" depart="507" departPos="0.00" arrivalPos="244.50" arrivalSpeed="0.00" from="2o" to="2o"/>
    <trip id="carIn296:1" type="default" depart="507" departPos="243.00" arrivalPos="40.71" arrivalSpeed="0.00" from="1i" to="4i"/>
    <trip id="carIn18:1" type="default" depart="508" departPos="0.00" arrivalPos="39.77" arrivalSpeed="0.00" from="3o" to="3i"/>
    <trip id="carIn80:1" type="default" depart="508" departPos="0.00" arrivalPos="240.66" arrivalSpeed="0.00" from="4o" to="2o"/>
    <trip id="carIn118:1" type="default" depart="508" departPos="243.00" arrivalPos="1.39" arrivalSpeed="0.00" from="2i" to="2i"/>
    <trip id="carIn137:1" type="default" depart="508" departPos="243.00" arrivalPos="1.29" arrivalSpeed="0.00" from="1i" to="1i"/>
    <trip id="carIn205:1" type="default" depart="508" departPos="0.00" arrivalPos="41.45" arrivalSpeed="0.00" from="3o" to="1i"/>
    <trip id="carIn331:1" type="default" depart="508" departPos="0.00" arrivalPos="39.91" arrivalSpeed="0.00" from="3o" to="4i"/>
    <trip id="carIn106:1" type="default" depart="509" departPos="243.00" arrivalPos="45.97" arrivalSpeed="0.00" from="2i" to="1i"/>
    <trip id="carIn378:1" type="default" depart="509" departPos="0.00" arrivalPos="42.19" arrivalSpeed="0.00" from="2o" to="3i"/>
    <trip id="carIn94:1" type="default" depart="510" departPos="243.00" arrivalPos="7.19" arrivalSpeed="0.00" from="3i" to="3i"/>
    <trip id="carIn327:1" type="default" depart="510" departPos="0.00" arrivalPos="235.91" arrivalSpeed="0.00" from="1o" to="1o"/>
    <trip id="carIn44:1" type="default" depart="512" departPos="0.00" arrivalPos="230.96" arrivalSpeed="0.00" from="1o" to="4o"/>
    <trip id="carIn67:1" type="default" depart="512" departPos="243.00" arrivalPos="191.11" arrivalSpeed="0.00" from="1i" to="3o"/>
    <trip id="carIn193:1" type="default" depart="512" departPos="0.00" arrivalPos="231.49" arrivalSpeed="0.00" from="1o" to="3o"/>
    <trip id="carIn281:1" type="default" depart="512" departPos="243.00" arrivalPos="12.38" arrivalSpeed="0.00" from="3i" to="3i"/>
    <trip id="carIn343:1" type="default" depart="512" departPos="0.00" arrivalPos="49.90" arrivalSpeed="0.00" from="4o" to="3i"/>
    <trip id="carIn437:1" type="default" depart="512" departPos="0.00" arrivalPos="52.03" arrivalSpeed="0.00" from="2o" to="2i"/>
    <trip id="carIn15:1" type="default" depart="513" departPos="243.00" arrivalPos="14.28" arrivalSpeed="0.00" from="2i" to="2i"/>
    <trip id="carIn133:1" type="default" depart="513" departPos="243.00" arrivalPos="225.15" arrivalSpeed="0.00" from="2i" to="1o"/>
    <trip id="carIn335:1" type="default" depart="513" departPos="243.00" arrivalPos="266.63" arrivalSpeed="0.00" from="3i" to="3o"/>
    <trip id="carIn338:1" type="default" depart="513" departPos="0.00" arrivalPos="54.79" arrivalSpeed="0.00" from="2o" to="1i"/>
    <trip id="carIn352:1" type="default" depart="513" departPos="243.00" arrivalPos="91.30" arrivalSpeed="0.00" from="2i" to="4i"/>
    <trip id="carIn374:1" type="default" depart="513" departPos="243.00" arrivalPos="93.84" arrivalSpeed="0.00" from="1i" to="3i"/>
    <trip id="carIn2:1" type="default" depart="514" departPos="243.00" arrivalPos="94.66" arrivalSpeed="0.00" from="1i" to="3i"/>
    <trip id="carIn57:1" type="default" depart="514" departPos="243.00" arrivalPos="58.75" arrivalSpeed="0.00" from="1i" to="4i"/>
    <trip id="carIn143:1" type="default" depart="514" departPos="243.00" arrivalPos="223.72" arrivalSpeed="0.00" from="2i" to="3o"/>
    <trip id="carIn333:1" type="default" depart="514" departPos="0.00" arrivalPos="226.66" arrivalSpeed="0.00" from="2o" to="2o"/>
    <trip id="carIn351:1" type="default" depart="514" departPos="0.00" arrivalPos="224.90" arrivalSpeed="0.00" from="2o" to="4o"/>
    <trip id="carIn365:1" type="default" depart="514" departPos="0.00" arrivalPos="225.65" arrivalSpeed="0.00" from="2o" to="3o"/>
    <trip id="carIn123:1" type="default" depart="515" departPos="243.00" arrivalPos="61.71" arrivalSpeed="0.00" from="3i" to="2i"/>
    <trip id="carIn199:1" type="default" depart="515" departPos="0.00" arrivalPos="223.16" arrivalSpeed="0.00" from="3o" to="4o"/>
    <trip id="carIn373:1" type="default" depart="515" departPos="243.00" arrivalPos="20.04" arrivalSpeed="0.00" from="3i" to="3i"/>
    <trip id="carIn376:1" type="default" depart="515" departPos="243.00" arrivalPos="218.72" arrivalSpeed="0.00" from="4i" to="1o"/>
    <trip id="carIn414:1" type="default" depart="515" departPos="0.00" arrivalPos="59.10" arrivalSpeed="0.00" from="2o" to="2i"/>
    <trip id="carIn163:1" type="default" depart="516" departPos="0.00" arrivalPos="62.23" arrivalSpeed="0.00" from="4o" to="4i"/>
    <trip id="carIn215:1" type="default" depart="516" departPos="243.00" arrivalPos="65.60" arrivalSpeed="0.00" from="4i" to="1i"/>
    <trip id="carIn289:1" type="default" depart="516" departPos="243.00" arrivalPos="181.03" arrivalSpeed="0.00" from="2i" to="4o"/>
    <trip id="carIn377:1" type="default" depart="516" departPos="243.00" arrivalPos="182.27" arrivalSpeed="0.00" from="1i" to="3o"/>
    <trip id="carIn420:1" type="default" depart="516" departPos="0.00" arrivalPos="221.39" arrivalSpeed="0.00" from="3o" to="1o"/>
    <trip id="carIn11:1" type="default" depart="517" departPos="243.00" arrivalPos="68.70" arrivalSpeed="0.00" from="1i" to="2i"/>
    <trip id="carIn144:1" type="default" depart="518" departPos="243.00" arrivalPos="212.58" arrivalSpeed="0.00" from="2i" to="3o"/>
    <trip id="carIn186:1" type="default" depart="518" departPos="243.00" arrivalPos="106.07" arrivalSpeed="0.00" from="4i" to="2i"/>
    <trip id="carIn201:1" type="default" depart="518" departPos="0.00" arrivalPos="67.89" arrivalSpeed="0.00" from="4o" to="2i"/>
    <trip id="carIn252:1" type="default" depart="518" departPos="0.00" arrivalPos="67.27" arrivalSpeed="0.00" from="3o" to="2i"/>
    <trip id="carIn300:1" type="default" depart="518" departPos="243.00" arrivalPos="106.90" arrivalSpeed="0.00" from="2i" to="4i"/>
    <trip id="carIn304:1" type="default" depart="518" departPos="0.00" arrivalPos="216.49" arrivalSpeed="0.00" from="1o" to="1o"/>
    <trip id="carIn321:1" type="default" depart="518" departPos="0.00" arrivalPos="65.74" arrivalSpeed="0.00" from="1o" to="2i"/>
    <trip id="carIn425:1" type="default" depart="518" departPos="243.00" arrivalPos="104.44" arrivalSpeed="0.00" from="3i" to="1i"/>
    <trip id="carIn12:1" type="default" depart="519" departPos="243.00" arrivalPos="251.75" arrivalSpeed="0.00" from="4i" to="4o"/>
    <trip id="carIn71:1" type="default" depart="519" departPos="0.00" arrivalPos="69.17" arrivalSpeed="0.00" from="3o" to="3i"/>
    <trip id="carIn242:1" type="default" depart="519" departPos="0.00" arrivalPos="69.10" arrivalSpeed="0.00" from="1o" to="3i"/>
    <trip id="carIn117:1" type="default" depart="520" departPos="243.00" arrivalPos="250.39" arrivalSpeed="0.00" from="4i" to="4o"/>
    <trip id="carIn177:1" type="default" depart="520" departPos="0.00" arrivalPos="210.47" arrivalSpeed="0.00" from="3o" to="3o"/>
    <trip id="carIn157:1" type="default" depart="521" departPos="243.00" arrivalPos="112.91" arrivalSpeed="0.00" from="1i" to="3i"/>
    <trip id="carIn294:1" type="default" depart="521" departPos="0.00" arrivalPos="74.09" arrivalSpeed="0.00" from="4o" to="4i"/>
    <trip id="carIn346:1" type="default" depart="521" departPos="243.00" arrivalPos="168.11" arrivalSpeed="0.00" from="3i" to="1o"/>
    <trip id="carIn382:1" type="default" depart="521" departPos="243.00" arrivalPos="34.08" arrivalSpeed="0.00" from="1i" to="1i"/>
    <trip id="carIn102:1" type="default" depart="522" departPos="243.00" arrivalPos="200.32" arrivalSpeed="0.00" from="3i" to="2o"/>
    <trip id="carIn141:1" type="default" depart="522" departPos="243.00" arrivalPos="82.02" arrivalSpeed="0.00" from="4i" to="3i"/>
    <trip id="carIn189:1" type="default" depart="522" departPos="243.00" arrivalPos="79.67" arrivalSpeed="0.00" from="1i" to="4i"/>
    <trip id="carIn210:1" type="default" depart="522" departPos="0.00" arrivalPos="204.55" arrivalSpeed="0.00" from="4o" to="2o"/>
    <trip id="carIn317:1" type="default" depart="522" departPos="0.00" arrivalPos="76.09" arrivalSpeed="0.00" from="3o" to="3i"/>
    <trip id="carIn314:1" type="default" depart="523" departPos="243.00" arrivalPos="82.92" arrivalSpeed="0.00" from="4i" to="3i"/>
    <trip id="carIn66:1" type="default" depart="524" departPos="0.00" arrivalPos="199.04" arrivalSpeed="0.00" from="3o" to="3o"/>
    <trip id="carIn223:1" type="default" depart="524" departPos="243.00" arrivalPos="238.82" arrivalSpeed="0.00" from="3i" to="3o"/>
    <trip id="carIn261:1" type="default" depart="524" departPos="0.00" arrivalPos="199.15" arrivalSpeed="0.00" from="2o" to="1o"/>
    <trip id="carIn243:1" type="default" depart="525" departPos="243.00" arrivalPos="90.10" arrivalSpeed="0.00" from="4i" to="1i"/>
    <trip id="carIn287:1" type="default" depart="525" departPos="243.00" arrivalPos="88.88" arrivalSpeed="0.00" from="3i" to="4i"/>
    <trip id="carIn10:1" type="default" depart="526" departPos="0.00" arrivalPos="195.18" arrivalSpeed="0.00" from="1o" to="2o"/>
    <trip id="carIn22:1" type="default" depart="526" departPos="243.00" arrivalPos="90.24" arrivalSpeed="0.00" from="4i" to="1i"/>
    <trip id="carIn32:1" type="default" depart="526" departPos="243.00" arrivalPos="90.38" arrivalSpeed="0.00" from="3i" to="2i"/>
    <trip id="carIn83:1" type="default" depart="526" departPos="243.00" arrivalPos="48.47" arrivalSpeed="0.00" from="3i" to="3i"/>
    <trip id="carIn449:1" type="default" depart="526" departPos="243.00" arrivalPos="91.69" arrivalSpeed="0.00" from="4i" to="1i"/>
    <trip id="carIn39:1" type="default" depart="528" departPos="243.00" arrivalPos="185.19" arrivalSpeed="0.00" from="4i" to="3o"/>
    <trip id="carIn77:1" type="default" depart="528" departPos="0.00" arrivalPos="93.57" arrivalSpeed="0.00" from="1o" to="4i"/>
    <trip id="carIn222:1" type="default" depart="528" departPos="243.00" arrivalPos="52.60" arrivalSpeed="0.00" from="4i" to="4i"/>
    <trip id="carIn336:1" type="default" depart="528" departPos="243.00" arrivalPos="96.59" arrivalSpeed="0.00" from="2i" to="3i"/>
    <trip id="carIn340:1" type="default" depart="528" departPos="0.00" arrivalPos="93.10" arrivalSpeed="0.00" from="1o" to="4i"/>
    <trip id="carIn90:1" type="default" depart="529" departPos="0.00" arrivalPos="187.28" arrivalSpeed="0.00" from="2o" to="3o"/>
    <trip id="carIn175:1" type="default" depart="529" departPos="243.00" arrivalPos="147.66" arrivalSpeed="0.00" from="3i" to="1o"/>
    <trip id="carIn249:1" type="default" depart="529" departPos="0.00" arrivalPos="185.79" arrivalSpeed="0.00" from="4o" to="2o"/>
    <trip id="carIn443:1" type="default" depart="529" departPos="0.00" arrivalPos="185.89" arrivalSpeed="0.00" from="4o" to="3o"/>
    <trip id="carIn88:1" type="default" depart="530" departPos="243.00" arrivalPos="102.41" arrivalSpeed="0.00" from="3i" to="4i"/>
    <trip id="carIn114:1" type="default" depart="530" departPos="0.00" arrivalPos="183.54" arrivalSpeed="0.00" from="1o" to="2o"/>
    <trip id="carIn334:1" type="default" depart="530" departPos="0.00" arrivalPos="96.78" arrivalSpeed="0.00" from="4o" to="1i"/>
    <trip id="carIn379:1" type="default" depart="530" departPos="0.00" arrivalPos="185.31" arrivalSpeed="0.00" from="1o" to="1o"/>
    <trip id="carIn29:1" type="default" depart="531" departPos="0.00" arrivalPos="99.80" arrivalSpeed="0.00" from="3o" to="1i"/>
    <trip id="carIn58:1" type="default" depart="531" departPos="243.00" arrivalPos="220.56" arrivalSpeed="0.00" from="1i" to="1o"/>
    <trip id="carIn75:1" type="default" depart="531" departPos="243.00" arrivalPos="138.95" arrivalSpeed="0.00" from="3i" to="1i"/>
    <trip id="carIn369:1" type="default" depart="531" departPos="243.00" arrivalPos="104.97" arrivalSpeed="0.00" from="4i" to="1i"/>
    <trip id="carIn447:1" type="default" depart="531" departPos="243.00" arrivalPos="142.11" arrivalSpeed="0.00" from="2i" to="4o"/>
    <trip id="carIn28:1" type="default" depart="532" departPos="243.00" arrivalPos="108.61" arrivalSpeed="0.00" from="1i" to="4i"/>
    <trip id="carIn86:1" type="default" depart="532" departPos="0.00" arrivalPos="102.63" arrivalSpeed="0.00" from="2o" to="3i"/>
    <trip id="carIn96:1" type="default" depart="532" departPos="243.00" arrivalPos="174.42" arrivalSpeed="0.00" from="3i" to="2o"/>
    <trip id="carIn194:1" type="default" depart="532" departPos="0.00" arrivalPos="103.54" arrivalSpeed="0.00" from="4o" to="4i"/>
    <trip id="carIn9:1" type="default" depart="533" departPos="243.00" arrivalPos="110.83" arrivalSpeed="0.00" from="2i" to="3i"/>
    <trip id="carIn49:1" type="default" depart="533" departPos="243.00" arrivalPos="109.40" arrivalSpeed="0.00" from="1i" to="2i"/>
    <trip id="carIn155:1" type="default" depart="533" departPos="243.00" arrivalPos="109.73" arrivalSpeed="0.00" from="4i" to="3i"/>
    <trip id="carIn353:1" type="default" depart="533" departPos="0.00" arrivalPos="104.68" arrivalSpeed="0.00" from="1o" to="2i"/>
    <trip id="carIn52:1" type="default" depart="534" departPos="243.00" arrivalPos="113.55" arrivalSpeed="0.00" from="2i" to="1i"/>
    <trip id="carIn282:1" type="default" depart="534" departPos="0.00" arrivalPos="107.20" arrivalSpeed="0.00" from="4o" to="1i"/>
    <trip id="carIn101:1" type="default" depart="535" departPos="243.00" arrivalPos="150.87" arrivalSpeed="0.00" from="3i" to="1i"/>
    <trip id="carIn228:1" type="default" depart="535" departPos="243.00" arrivalPos="166.81" arrivalSpeed="0.00" from="2i" to="1o"/>
    <trip id="carIn307:1" type="default" depart="535" departPos="0.00" arrivalPos="172.04" arrivalSpeed="0.00" from="2o" to="3o"/>
    <trip id="carIn375:1" type="default" depart="535" departPos="0.00" arrivalPos="110.54" arrivalSpeed="0.00" from="3o" to="4i"/>
    <trip id="carIn100:1" type="default" depart="536" departPos="0.00" arrivalPos="113.65" arrivalSpeed="0.00" from="4o" to="1i"/>
    <trip id="carIn119:1" type="default" depart="536" departPos="0.00" arrivalPos="167.84" arrivalSpeed="0.00" from="4o" to="3o"/>
    <trip id="carIn298:1" type="default" depart="536" departPos="0.00" arrivalPos="112.78" arrivalSpeed="0.00" from="1o" to="4i"/>
    <trip id="carIn394:1" type="default" depart="536" departPos="243.00" arrivalPos="165.17" arrivalSpeed="0.00" from="1i" to="4o"/>
    <trip id="carIn91:1" type="default" depart="537" departPos="243.00" arrivalPos="162.24" arrivalSpeed="0.00" from="1i" to="2o"/>
    <trip id="carIn361:1" type="default" depart="537" departPos="0.00" arrivalPos="115.26" arrivalSpeed="0.00" from="3o" to="2i"/>
    <trip id="carIn391:1" type="default" depart="537" departPos="0.00" arrivalPos="164.99" arrivalSpeed="0.00" from="4o" to="2o"/>
    <trip id="carIn403:1" type="default" depart="537" departPos="0.00" arrivalPos="165.06" arrivalSpeed="0.00" from="4o" to="1o"/>
    <trip id="carIn21:1" type="default" depart="538" departPos="243.00" arrivalPos="158.20" arrivalSpeed="0.00" from="4i" to="3o"/>
    <trip id="carIn60:1" type="default" depart="538" departPos="243.00" arrivalPos="156.95" arrivalSpeed="0.00" from="4i" to="2i"/>
    <trip id="carIn81:1" type="default" depart="538" departPos="243.00" arrivalPos="157.95" arrivalSpeed="0.00" from="2i" to="3o"/>
    <trip id="carIn95:1" type="default" depart="538" departPos="243.00" arrivalPos="203.35" arrivalSpeed="0.00" from="2i" to="2o"/>
    <trip id="carIn112:1" type="default" depart="538" departPos="243.00" arrivalPos="203.09" arrivalSpeed="0.00" from="4i" to="4o"/>
    <trip id="carIn229:1" type="default" depart="538" departPos="0.00" arrivalPos="119.53" arrivalSpeed="0.00" from="3o" to="4i"/>
    <trip id="carIn299:1" type="default" depart="538" departPos="243.00" arrivalPos="123.51" arrivalSpeed="0.00" from="4i" to="1i"/>
    <trip id="carIn356:1" type="default" depart="538" departPos="243.00" arrivalPos="158.64" arrivalSpeed="0.00" from="2i" to="4i"/>
    <trip id="carIn6:1" type="default" depart="539" departPos="243.00" arrivalPos="121.17" arrivalSpeed="0.00" from="4i" to="2o"/>
    <trip id="carIn23:1" type="default" depart="539" departPos="243.00" arrivalPos="155.89" arrivalSpeed="0.00" from="4i" to="1o"/>
    <trip id="carIn121:1" type="default" depart="539" departPos="0.00" arrivalPos="161.43" arrivalSpeed="0.00" from="3o" to="1o"/>
    <trip id="carIn204:1" type="default" depart="539" departPos="0.00" arrivalPos="161.45" arrivalSpeed="0.00" from="4o" to="3o"/>
    <trip id="carIn250:1" type="default" depart="539" departPos="0.00" arrivalPos="120.35" arrivalSpeed="0.00" from="2o" to="1i"/>
    <trip id="carIn431:1" type="default" depart="539" departPos="0.00" arrivalPos="161.40" arrivalSpeed="0.00" from="4o" to="2o"/>
    <trip id="carIn135:1" type="default" depart="540" departPos="0.00" arrivalPos="123.77" arrivalSpeed="0.00" from="2o" to="2i"/>
    <trip id="carIn278:1" type="default" depart="540" departPos="243.00" arrivalPos="127.98" arrivalSpeed="0.00" from="4i" to="1i"/>
    <trip id="carIn1:1" type="default" depart="541" departPos="243.00" arrivalPos="149.26" arrivalSpeed="0.00" from="1i" to="2o"/>
    <trip id="carIn89:1" type="default" depart="541" departPos="243.00" arrivalPos="88.43" arrivalSpeed="0.00" from="3i" to="3i"/>
    <trip id="carIn258:1" type="default" depart="541" departPos="243.00" arrivalPos="150.26" arrivalSpeed="0.00" from="4i" to="1o"/>
    <trip id="carIn54:1" type="default" depart="542" departPos="243.00" arrivalPos="113.11" arrivalSpeed="0.00" from="3i" to="1o"/>
    <trip id="carIn158:1" type="default" depart="542" departPos="243.00" arrivalPos="113.07" arrivalSpeed="0.00" from="2i" to="4o"/>
    <trip id="carIn195:1" type="default" depart="542" departPos="0.00" arrivalPos="151.87" arrivalSpeed="0.00" from="3o" to="1o"/>
    <trip id="carIn347:1" type="default" depart="542" departPos="0.00" arrivalPos="130.28" arrivalSpeed="0.00" from="3o" to="3i"/>
    <trip id="carIn429:1" type="default" depart="542" departPos="0.00" arrivalPos="128.27" arrivalSpeed="0.00" from="2o" to="4i"/>
    <trip id="carIn111:1" type="default" depart="543" departPos="0.00" arrivalPos="132.12" arrivalSpeed="0.00" from="3o" to="4i"/>
    <trip id="carIn202:1" type="default" depart="543" departPos="0.00" arrivalPos="151.26" arrivalSpeed="0.00" from="1o" to="4o"/>
    <trip id="carIn216:1" type="default" depart="543" departPos="0.00" arrivalPos="150.77" arrivalSpeed="0.00" from="2o" to="4o"/>
    <trip id="carIn124:1" type="default" depart="544" departPos="243.00" arrivalPos="174.14" arrivalSpeed="0.00" from="4i" to="2i"/>
    <trip id="carIn233:1" type="default" depart="544" departPos="0.00" arrivalPos="134.99" arrivalSpeed="0.00" from="4o" to="2i"/>
    <trip id="carIn325:1" type="default" depart="544" departPos="243.00" arrivalPos="141.54" arrivalSpeed="0.00" from="3i" to="4o"/>
    <trip id="carIn339:1" type="default" depart="544" departPos="243.00" arrivalPos="138.96" arrivalSpeed="0.00" from="4i" to="1i"/>
    <trip id="carIn166:1" type="default" depart="545" departPos="0.00" arrivalPos="137.37" arrivalSpeed="0.00" from="2o" to="3i"/>
    <trip id="carIn174:1" type="default" depart="545" departPos="0.00" arrivalPos="138.07" arrivalSpeed="0.00" from="4o" to="4i"/>
    <trip id="carIn430:1" type="default" depart="545" departPos="0.00" arrivalPos="136.49" arrivalSpeed="0.00" from="2o" to="4i"/>
    <trip id="carIn46:1" type="default" depart="546" departPos="243.00" arrivalPos="144.10" arrivalSpeed="0.00" from="2i" to="1i"/>
    <trip id="carIn404:1" type="default" depart="546" departPos="243.00" arrivalPos="145.97" arrivalSpeed="0.00" from="1i" to="4i"/>
    <trip id="carIn36:1" type="default" depart="547" departPos="0.00" arrivalPos="141.71" arrivalSpeed="0.00" from="4o" to="4i"/>
    <trip id="carIn70:1" type="default" depart="547" departPos="243.00" arrivalPos="135.16" arrivalSpeed="0.00" from="4i" to="1o"/>
    <trip id="carIn142:1" type="default" depart="547" departPos="243.00" arrivalPos="102.71" arrivalSpeed="0.00" from="4i" to="4i"/>
    <trip id="carIn318:1" type="default" depart="547" departPos="243.00" arrivalPos="148.39" arrivalSpeed="0.00" from="3i" to="4i"/>
    <trip id="carIn389:1" type="default" depart="547" departPos="243.00" arrivalPos="133.13" arrivalSpeed="0.00" from="2i" to="3o"/>
    <trip id="carIn64:1" type="default" depart="548" departPos="0.00" arrivalPos="137.55" arrivalSpeed="0.00" from="1o" to="1o"/>
    <trip id="carIn176:1" type="default" depart="548" departPos="243.00" arrivalPos="132.40" arrivalSpeed="0.00" from="1i" to="2o"/>
    <trip id="carIn217:1" type="default" depart="548" departPos="0.00" arrivalPos="136.48" arrivalSpeed="0.00" from="4o" to="3o"/>
    <trip id="carIn293:1" type="default" depart="548" departPos="0.00" arrivalPos="144.09" arrivalSpeed="0.00" from="1o" to="4i"/>