<?xml version="1.0" encoding="UTF-8"?>
<!-- generated on 2018-04-27 22:39:09.699822 by $Id$ via randomTrips.py
  options: 
-->
<routes xmlns:xsi="http://www.w3.org/2001/XMLSchema-instance" xsi:noNamespaceSchemaLocation="http://sumo.dlr.de/xsd/routes_file.xsd">
    <vType id="passenger" speedFactor="normc(1.00,0.10,0.20,2.00)" vClass="passenger">
    </vType>
    <trip id="veh0" depart="0.00" departLane="best" from="19930608#26" to="-124086105" type="passenger"/>
    <trip id="veh4" depart="3.86" departLane="best" from="-20140332" to="-124086106#2" type="passenger"/>
    <trip id="veh6" depart="5.78" departLane="best" from="-101521972" to="-20135920#0" type="passenger"/>
    <trip id="veh7" depart="6.75" departLane="best" from="20116617#0" to="19930576" type="passenger"/>
    <trip id="veh12" depart="11.57" departLane="best" from="512614095#4" to="-41405321#2" type="passenger"/>
    <trip id="veh14" depart="13.49" departLane="best" from="22873068#2" to="20118467" type="passenger"/>
    <trip id="veh16" depart="15.42" departLane="best" from="-20136881" to="19930590" type="passenger"/>
    <trip id="veh17" depart="16.39" departLane="best" from="21232573#0" to="20118467" type="passenger"/>
    <trip id="veh19" depart="18.31" departLane="best" from="20124464" to="-17927627#1" type="passenger"/>
    <trip id="veh20" depart="19.28" departLane="best" from="-20123316#1" to="-390634953#0" type="passenger"/>
    <trip id="veh23" depart="22.17" departLane="best" from="19930608#18" to="-70262161#0" type="passenger"/>
    <trip id="veh24" depart="23.13" departLane="best" from="-20128629" to="379738162" type="passenger"/>
    <trip id="veh25" depart="24.10" departLane="best" from="20116617#0" to="20118467" type="passenger"/>
    <trip id="veh27" depart="26.03" departLane="best" from="-19930608#25" to="-70262161#0" type="passenger"/>
    <trip id="veh28" depart="26.99" departLane="best" from="76536995#0" to="20123316#1" type="passenger"/>
    <trip id="veh29" depart="27.95" departLane="best" from="-76536995#11" to="20128721#2" type="passenger"/>
    <trip id="veh30" depart="28.92" departLane="best" from="22372826#1" to="20136531#1" type="passenger"/>
    <trip id="veh31" depart="29.88" departLane="best" from="-20123316#1" to="-15089727#1" type="passenger"/>
    <trip id="veh32" depart="30.84" departLane="best" from="-20129449#3" to="-23958820#0" type="passenger"/>
    <trip id="veh33" depart="31.81" departLane="best" from="-20118467" to="40597178#7" type="passenger"/>
    <trip id="veh34" depart="32.77" departLane="best" from="390634953#0" to="-413399527#0" type="passenger"/>
    <trip id="veh35" depart="33.74" departLane="best" from="20116617#0" to="-76536995#0" type="passenger"/>
    <trip id="veh36" depart="34.70" departLane="best" from="413399527#0" to="124086104#1" type="passenger"/>
    <trip id="veh38" depart="36.63" departLane="best" from="101081088#2" to="-23603527" type="passenger"/>
    <trip id="veh39" depart="37.59" departLane="best" from="139470231" to="272931651#1" type="passenger"/>
    <trip id="veh41" depart="39.52" departLane="best" from="76536995#4" to="15089727#6" type="passenger"/>
    <trip id="veh44" depart="42.41" departLane="best" from="20139428" to="101386401#2" type="passenger"/>
    <trip id="veh45" depart="43.38" departLane="best" from="-124086106#1" to="-70262164#1" type="passenger"/>
    <trip id="veh46" depart="44.34" departLane="best" from="76536995#10" to="17927627#9" type="passenger"/>
    <trip id="veh47" depart="45.30" departLane="best" from="70262161#0" to="23958820#1" type="passenger"/>
    <trip id="veh48" depart="46.27" departLane="best" from="-101386401#2" to="20131567#2" type="passenger"/>
    <trip id="veh49" depart="47.23" departLane="best" from="20118480#4" to="19930576" type="passenger"/>
    <trip id="veh50" depart="48.19" departLane="best" from="-20128629" to="20123316#1" type="passenger"/>
    <trip id="veh52" depart="50.12" departLane="best" from="-23958820#1" to="41163309" type="passenger"/>
    <trip id="veh53" depart="51.09" departLane="best" from="390634953#0" to="-23603528#0" type="passenger"/>
    <trip id="veh55" depart="53.01" departLane="best" from="413399527#0" to="23958820#1" type="passenger"/>
    <trip id="veh56" depart="53.98" departLane="best" from="-20128721#2" to="20123316#1" type="passenger"/>
    <trip id="veh60" depart="57.83" departLane="best" from="-101081088#1" to="-413399527#0" type="passenger"/>
    <trip id="veh61" depart="58.80" departLane="best" from="-101386401#2" to="379738162" type="passenger"/>
    <trip id="veh62" depart="59.76" departLane="best" from="390634953#0" to="20140332" type="passenger"/>
    <trip id="veh63" depart="60.73" departLane="best" from="-20129449#3" to="-19930608#17" type="passenger"/>
    <trip id="veh64" depart="61.69" departLane="best" from="390634953#0" to="40597180#4" type="passenger"/>
    <trip id="veh66" depart="63.62" departLane="best" from="-124086106#7" to="20135583" type="passenger"/>
    <trip id="veh68" depart="65.55" departLane="best" from="-351667209" to="19930576" type="passenger"/>
    <trip id="veh70" depart="67.47" departLane="best" from="-20140332" to="-20139428" type="passenger"/>
    <trip id="veh71" depart="68.44" departLane="best" from="-509257352" to="20131567#2" type="passenger"/>
    <trip id="veh73" depart="70.36" departLane="best" from="-23958814#3" to="17824973#1" type="passenger"/>
    <trip id="veh77" depart="74.22" departLane="best" from="-124086106#7" to="20123316#1" type="passenger"/>
    <trip id="veh78" depart="75.18" departLane="best" from="-20123316#1" to="351667209" type="passenger"/>
    <trip id="veh79" depart="76.15" departLane="best" from="264212543#0" to="-20116617#0" type="passenger"/>
    <trip id="veh80" depart="77.11" departLane="best" from="-20123316#1" to="20128629" type="passenger"/>
    <trip id="veh81" depart="78.08" departLane="best" from="-20118467" to="-20124464" type="passenger"/>
    <trip id="veh83" depart="80.00" departLane="best" from="-351667209" to="20136531#1" type="passenger"/>
    <trip id="veh86" depart="82.90" departLane="best" from="-20140332" to="124086104#1" type="passenger"/>
    <trip id="veh89" depart="85.79" departLane="best" from="-20137823" to="-509080961#0" type="passenger"/>
    <trip id="veh90" depart="86.75" departLane="best" from="268388495#2" to="-21232573#0" type="passenger"/>
    <trip id="veh92" depart="88.68" departLane="best" from="-20140332" to="-390634953#0" type="passenger"/>
    <trip id="veh93" depart="89.64" departLane="best" from="-20124639#14" to="379738162" type="passenger"/>
    <trip id="veh94" depart="90.61" departLane="best" from="-512614095#3" to="-180126048#2" type="passenger"/>
    <trip id="veh95" depart="91.57" departLane="best" from="76536995#8" to="20140332" type="passenger"/>
    <trip id="veh96" depart="92.53" departLane="best" from="70262161#0" to="379738162" type="passenger"/>
    <trip id="veh98" depart="94.46" departLane="best" from="-379738162" to="-20139428" type="passenger"/>
    <trip id="veh99" depart="95.43" departLane="best" from="-20137823" to="-19930608#19" type="passenger"/>
    <trip id="veh100" depart="96.39" departLane="best" from="-20136881" to="509257352" type="passenger"/>
    <trip id="veh102" depart="98.32" departLane="best" from="-23958820#1" to="101386401#2" type="passenger"/>
    <trip id="veh103" depart="99.28" departLane="best" from="568827657#0" to="70262164#1" type="passenger"/>
    <trip id="veh104" depart="100.25" departLane="best" from="-76536995#1" to="20131567#2" type="passenger"/>
    <trip id="veh105" depart="101.21" departLane="best" from="-19930578#1" to="-40597178#0" type="passenger"/>
    <trip id="veh109" depart="105.06" departLane="best" from="-40597178#0" to="22873072#5" type="passenger"/>
    <trip id="veh110" depart="106.03" departLane="best" from="-19930608#12" to="413954039" type="passenger"/>
    <trip id="veh112" depart="107.96" departLane="best" from="139470231" to="20128629" type="passenger"/>
    <trip id="veh113" depart="108.92" departLane="best" from="-20123316#1" to="-20123316#0" type="passenger"/>
    <trip id="veh114" depart="109.88" departLane="best" from="40597178#4" to="-21232573#0" type="passenger"/>
    <trip id="veh115" depart="110.85" departLane="best" from="139470231" to="20118480#1" type="passenger"/>
    <trip id="veh117" depart="112.78" departLane="best" from="-41405321#11" to="379738162" type="passenger"/>
    <trip id="veh118" depart="113.74" departLane="best" from="-20118467" to="20131567#0" type="passenger"/>
    <trip id="veh119" depart="114.70" departLane="best" from="-20123316#1" to="-76536995#0" type="passenger"/>
    <trip id="veh121" depart="116.63" departLane="best" from="-20129449#3" to="20135583" type="passenger"/>
    <trip id="veh122" depart="117.60" departLane="best" from="-124086106#7" to="124086104#1" type="passenger"/>
    <trip id="veh123" depart="118.56" departLane="best" from="-124086106#7" to="-20139428" type="passenger"/>
    <trip id="veh125" depart="120.49" departLane="best" from="390634953#0" to="268388495#0" type="passenger"/>
    <trip id="veh127" depart="122.41" departLane="best" from="21232573#0" to="20129449#3" type="passenger"/>
    <trip id="veh128" depart="123.38" departLane="best" from="17825832#12" to="509257352" type="passenger"/>
    <trip id="veh129" depart="124.34" departLane="best" from="20116617#0" to="-101505468#0" type="passenger"/>
    <trip id="veh132" depart="127.23" departLane="best" from="-180126048#0" to="-20123316#0" type="passenger"/>
    <trip id="veh134" depart="129.16" departLane="best" from="-20128629" to="20118467" type="passenger"/>
    <trip id="veh135" depart="130.13" departLane="best" from="19930608#15" to="-23603537" type="passenger"/>
    <trip id="veh136" depart="131.09" departLane="best" from="-379738162" to="351667209" type="passenger"/>
    <trip id="veh138" depart="133.02" departLane="best" from="-20140332" to="-379738164#0" type="passenger"/>
    <trip id="veh139" depart="133.98" departLane="best" from="-101260417#1" to="20136531#1" type="passenger"/>
    <trip id="veh140" depart="134.95" departLane="best" from="19930608#21" to="-22873072#4" type="passenger"/>
    <trip id="veh142" depart="136.87" departLane="best" from="-124086106#7" to="272931651#1" type="passenger"/>
    <trip id="veh143" depart="137.84" departLane="best" from="41163310#3" to="19930576" type="passenger"/>
    <trip id="veh145" depart="139.77" departLane="best" from="-19930576" to="-20124464" type="passenger"/>
    <trip id="veh146" depart="140.73" departLane="best" from="-20129449#3" to="272931651#1" type="passenger"/>
    <trip id="veh147" depart="141.69" departLane="best" from="20139428" to="23958820#1" type="passenger"/>
    <trip id="veh148" depart="142.66" departLane="best" from="41163302#0" to="-20139428" type="passenger"/>
    <trip id="veh149" depart="143.62" departLane="best" from="-20124639#14" to="-20118480#3" type="passenger"/>
    <trip id="veh150" depart="144.58" departLane="best" from="20135920#2" to="272931651#1" type="passenger"/>
    <trip id="veh151" depart="145.55" departLane="best" from="-20137823" to="20118480#3" type="passenger"/>
    <trip id="veh152" depart="146.51" departLane="best" from="-19930578#0" to="379738162" type="passenger"/>
    <trip id="veh153" depart="147.48" departLane="best" from="273030038#0" to="509257352" type="passenger"/>
    <trip id="veh156" depart="150.37" departLane="best" from="-20131567#2" to="379738162" type="passenger"/>
    <trip id="veh159" depart="153.26" departLane="best" from="20139428" to="-20123316#0" type="passenger"/>
    <trip id="veh160" depart="154.22" departLane="best" from="390634953#0" to="23958820#0" type="passenger"/>
    <trip id="veh161" depart="155.19" departLane="best" from="-20118480#4" to="20137823" type="passenger"/>
    <trip id="veh162" depart="156.15" departLane="best" from="-268388495#4" to="-41163298#1" type="passenger"/>
    <trip id="veh165" depart="159.04" departLane="best" from="-20131567#2" to="23958820#1" type="passenger"/>
    <trip id="veh166" depart="160.01" departLane="best" from="70262161#0" to="-390634953#0" type="passenger"/>
    <trip id="veh167" depart="160.97" departLane="best" from="19930608#31" to="-76536995#2" type="passenger"/>
    <trip id="veh168" depart="161.93" departLane="best" from="76536995#0" to="19930576" type="passenger"/>
    <trip id="veh169" depart="162.90" departLane="best" from="512614095#0" to="-20123316#0" type="passenger"/>
    <trip id="veh173" depart="166.75" departLane="best" from="15179098#1" to="15089733#4" type="passenger"/>
    <trip id="veh175" depart="168.68" departLane="best" from="-20124639#14" to="20129449#3" type="passenger"/>
    <trip id="veh176" depart="169.65" departLane="best" from="-101081088#5" to="379738162" type="passenger"/>
    <trip id="veh177" depart="170.61" departLane="best" from="-509257352" to="20131567#2" type="passenger"/>
    <trip id="veh179" depart="172.54" departLane="best" from="-20136531#1" to="-20116617#0" type="passenger"/>
    <trip id="veh181" depart="174.47" departLane="best" from="-20129449#3" to="22873065#2" type="passenger"/>
    <trip id="veh182" depart="175.43" departLane="best" from="20124639#11" to="-40597178#9" type="passenger"/>
    <trip id="veh183" depart="176.39" departLane="best" from="-20129449#3" to="101274690#1" type="passenger"/>
    <trip id="veh184" depart="177.36" departLane="best" from="-20137823" to="-390634953#6" type="passenger"/>
    <trip id="veh185" depart="178.32" departLane="best" from="512614095#0" to="20128629" type="passenger"/>
    <trip id="veh186" depart="179.28" departLane="best" from="41163310#1" to="20118467" type="passenger"/>
    <trip id="veh187" depart="180.25" departLane="best" from="-20129449#0" to="19930576" type="passenger"/>
    <trip id="veh188" depart="181.21" departLane="best" from="-101081088#0" to="-390634953#0" type="passenger"/>
    <trip id="veh190" depart="183.14" departLane="best" from="20116617#0" to="124086104#1" type="passenger"/>
    <trip id="veh191" depart="184.10" departLane="best" from="-23958820#1" to="-20139428" type="passenger"/>
    <trip id="veh194" depart="187.00" departLane="best" from="19930608#12" to="-41405321#17" type="passenger"/>
    <trip id="veh195" depart="187.96" departLane="best" from="21224606#1" to="20135583" type="passenger"/>
    <trip id="veh198" depart="190.85" departLane="best" from="-20124639#14" to="124086106#7" type="passenger"/>
    <trip id="veh199" depart="191.82" departLane="best" from="22873072#4" to="-20116617#0" type="passenger"/>
    <trip id="veh200" depart="192.78" departLane="best" from="-20140332" to="20123316#1" type="passenger"/>
    <trip id="veh202" depart="194.71" departLane="best" from="-379738162" to="-21232573#0" type="passenger"/>
    <trip id="veh203" depart="195.67" departLane="best" from="20116617#0" to="-101386401#1" type="passenger"/>
    <trip id="veh207" depart="199.53" departLane="best" from="-413399527#5" to="-180126048#1" type="passenger"/>
    <trip id="veh208" depart="200.49" departLane="best" from="-20124639#14" to="22873065#3" type="passenger"/>
    <trip id="veh209" depart="201.45" departLane="best" from="-23958820#1" to="20136881" type="passenger"/>
    <trip id="veh211" depart="203.38" departLane="best" from="139470231" to="41163302#0" type="passenger"/>
    <trip id="veh212" depart="204.35" departLane="best" from="40597178#6" to="20118467" type="passenger"/>
    <trip id="veh214" depart="206.27" departLane="best" from="21232573#0" to="19930576" type="passenger"/>
    <trip id="veh216" depart="208.20" departLane="best" from="-351667209" to="-22873068#0" type="passenger"/>
    <trip id="veh217" depart="209.17" departLane="best" from="-20124639#14" to="20123316#1" type="passenger"/>
    <trip id="veh219" depart="211.09" departLane="best" from="180904976" to="-379738160#0" type="passenger"/>
    <trip id="veh220" depart="212.06" departLane="best" from="-124086106#7" to="-390634953#0" type="passenger"/>
    <trip id="veh221" depart="213.02" departLane="best" from="-20128629" to="-413399527#0" type="passenger"/>
    <trip id="veh222" depart="213.99" departLane="best" from="-509257352" to="-20124464" type="passenger"/>
    <trip id="veh223" depart="214.95" departLane="best" from="-20123316#1" to="20128721#2" type="passenger"/>
    <trip id="veh224" depart="215.91" departLane="best" from="20124464" to="-19930608#31" type="passenger"/>
    <trip id="veh226" depart="217.84" departLane="best" from="-20140332" to="-20139428" type="passenger"/>
    <trip id="veh227" depart="218.80" departLane="best" from="-20140332" to="351667209" type="passenger"/>
    <trip id="veh228" depart="219.77" departLane="best" from="139470231" to="20128721#2" type="passenger"/>
    <trip id="veh229" depart="220.73" departLane="best" from="24942157#2" to="20135583" type="passenger"/>
    <trip id="veh230" depart="221.70" departLane="best" from="-20136881" to="-101473342#0" type="passenger"/>
    <trip id="veh231" depart="222.66" departLane="best" from="23958814#1" to="41163309" type="passenger"/>
    <trip id="veh233" depart="224.59" departLane="best" from="-509257352" to="20118467" type="passenger"/>
    <trip id="veh235" depart="226.52" departLane="best" from="-23603528#1" to="-124086106#0" type="passenger"/>
    <trip id="veh236" depart="227.48" departLane="best" from="-20135583" to="20128629" type="passenger"/>
    <trip id="veh238" depart="229.41" departLane="best" from="-351667209" to="-20124464" type="passenger"/>
    <trip id="veh239" depart="230.37" departLane="best" from="180126045" to="-124086105" type="passenger"/>
    <trip id="veh240" depart="231.34" departLane="best" from="-20137823" to="19930608#30" type="passenger"/>
    <trip id="veh241" depart="232.30" departLane="best" from="-101521972" to="20124639#13" type="passenger"/>
    <trip id="veh242" depart="233.26" departLane="best" from="-180126048#3" to="124086104#1" type="passenger"/>
    <trip id="veh243" depart="234.23" departLane="best" from="-124086104#1" to="-70262161#0" type="passenger"/>
    <trip id="veh244" depart="235.19" departLane="best" from="-20118467" to="-413399527#2" type="passenger"/>
    <trip id="veh245" depart="236.15" departLane="best" from="20129449#1" to="-70262161#0" type="passenger"/>
    <trip id="veh247" depart="238.08" departLane="best" from="-20124639#14" to="-20116617#0" type="passenger"/>
    <trip id="veh248" depart="239.05" departLane="best" from="-101386401#2" to="19930576" type="passenger"/>
    <trip id="veh249" depart="240.01" departLane="best" from="20116617#0" to="20136531#1" type="passenger"/>
    <trip id="veh250" depart="240.97" departLane="best" from="20116617#0" to="20135583" type="passenger"/>
    <trip id="veh251" depart="241.94" departLane="best" from="512614095#0" to="-20135920#1" type="passenger"/>
    <trip id="veh253" depart="243.87" departLane="best" from="-17825832#5" to="20128629" type="passenger"/>
    <trip id="veh254" depart="244.83" departLane="best" from="101260417#1" to="-20139428" type="passenger"/>
    <trip id="veh255" depart="245.79" departLane="best" from="20123316#0" to="20135920#1" type="passenger"/>
    <trip id="veh256" depart="246.76" departLane="best" from="-19930608#8" to="20118467" type="passenger"/>
    <trip id="veh258" depart="248.69" departLane="best" from="21224608#1" to="41405321#15" type="passenger"/>
    <trip id="veh260" depart="250.61" departLane="best" from="-20129449#3" to="20128629" type="passenger"/>
    <trip id="veh261" depart="251.58" departLane="best" from="70260003#0" to="-76536995#0" type="passenger"/>
    <trip id="veh262" depart="252.54" departLane="best" from="20124464" to="-20116617#0" type="passenger"/>
    <trip id="veh263" depart="253.50" departLane="best" from="20123316#0" to="20123316#1" type="passenger"/>
    <trip id="veh266" depart="256.40" departLane="best" from="-15179098#6" to="509257352" type="passenger"/>
    <trip id="veh267" depart="257.36" departLane="best" from="20135920#8" to="-512614095#0" type="passenger"/>
    <trip id="veh268" depart="258.32" departLane="best" from="-21232570#6" to="-70262161#0" type="passenger"/>
    <trip id="veh269" depart="259.29" departLane="best" from="-40597178#8" to="-509257350#1" type="passenger"/>
    <trip id="veh270" depart="260.25" departLane="best" from="22873072#4" to="20140332" type="passenger"/>
    <trip id="veh272" depart="262.18" departLane="best" from="19930608#18" to="20140332" type="passenger"/>
    <trip id="veh273" depart="263.14" departLane="best" from="20124464" to="101521972" type="passenger"/>
    <trip id="veh275" depart="265.07" departLane="best" from="-20128629" to="20137823" type="passenger"/>
    <trip id="veh276" depart="266.04" departLane="best" from="-509257352" to="124086106#7" type="passenger"/>
    <trip id="veh277" depart="267.00" departLane="best" from="-23603528#1" to="20131567#2" type="passenger"/>
    <trip id="veh278" depart="267.96" departLane="best" from="-20128629" to="22873072#3" type="passenger"/>
    <trip id="veh280" depart="269.89" departLane="best" from="390634953#0" to="-21232573#0" type="passenger"/>
    <trip id="veh281" depart="270.86" departLane="best" from="-351667209" to="20118467" type="passenger"/>
    <trip id="veh282" depart="271.82" departLane="best" from="-20136881" to="-124086105" type="passenger"/>
    <trip id="veh283" depart="272.78" departLane="best" from="23603527" to="-20131567#1" type="passenger"/>
    <trip id="veh284" depart="273.75" departLane="best" from="-20118467" to="20136881" type="passenger"/>
    <trip id="veh285" depart="274.71" departLane="best" from="-20135583" to="268388495#2" type="passenger"/>
    <trip id="veh286" depart="275.67" departLane="best" from="20123316#0" to="-379738160#4" type="passenger"/>
    <trip id="veh287" depart="276.64" departLane="best" from="-101386401#2" to="40597180#6" type="passenger"/>
    <trip id="veh289" depart="278.57" departLane="best" from="-379738162" to="20135583" type="passenger"/>
    <trip id="veh290" depart="279.53" departLane="best" from="20123316#0" to="20124639#14" type="passenger"/>
    <trip id="veh291" depart="280.49" departLane="best" from="-379738162" to="20136881" type="passenger"/>
    <trip id="veh293" depart="282.42" departLane="best" from="20123316#0" to="-41163298#3" type="passenger"/>
    <trip id="veh294" depart="283.39" departLane="best" from="-509257350#0" to="101386401#2" type="passenger"/>
    <trip id="veh296" depart="285.31" departLane="best" from="20124464" to="-268388495#3" type="passenger"/>
    <trip id="veh297" depart="286.28" departLane="best" from="-20124639#14" to="-20123316#0" type="passenger"/>
    <trip id="veh299" depart="288.21" departLane="best" from="-509257352" to="20135583" type="passenger"/>
    <trip id="veh301" depart="290.13" departLane="best" from="-379738162" to="20131567#2" type="passenger"/>
    <trip id="veh302" depart="291.10" departLane="best" from="70262161#0" to="17825901#2" type="passenger"/>
    <trip id="veh304" depart="293.02" departLane="best" from="-20115944" to="-20139496#0" type="passenger"/>
    <trip id="veh306" depart="294.95" departLane="best" from="-509257352" to="-359856467" type="passenger"/>
    <trip id="veh307" depart="295.92" departLane="best" from="70262161#0" to="19930593#0" type="passenger"/>
    <trip id="veh308" depart="296.88" departLane="best" from="20123316#0" to="-20124464" type="passenger"/>
    <trip id="veh309" depart="297.84" departLane="best" from="379738160#7" to="124086106#7" type="passenger"/>
    <trip id="veh311" depart="299.77" departLane="best" from="-351667209" to="101521972" type="passenger"/>
    <trip id="veh313" depart="301.70" departLane="best" from="512614095#0" to="124086106#7" type="passenger"/>
    <trip id="veh314" depart="302.66" departLane="best" from="21232570#4" to="-76536995#5" type="passenger"/>
    <trip id="veh315" depart="303.63" departLane="best" from="-124086106#7" to="20123316#1" type="passenger"/>
    <trip id="veh317" depart="305.56" departLane="best" from="101081088#6" to="-40597180#5" type="passenger"/>
    <trip id="veh318" depart="306.52" departLane="best" from="76536995#0" to="-20123316#0" type="passenger"/>
    <trip id="veh321" depart="309.41" departLane="best" from="-41405321#10" to="101521972" type="passenger"/>
    <trip id="veh322" depart="310.37" departLane="best" from="76536995#0" to="-41163298#1" type="passenger"/>
    <trip id="veh323" depart="311.34" departLane="best" from="17927627#7" to="20118467" type="passenger"/>
    <trip id="veh325" depart="313.27" departLane="best" from="-20118467" to="-20139428" type="passenger"/>
    <trip id="veh328" depart="316.16" departLane="best" from="-101081088#7" to="101521972" type="passenger"/>
    <trip id="veh329" depart="317.12" departLane="best" from="139470231" to="-390634953#0" type="passenger"/>
    <trip id="veh330" depart="318.09" departLane="best" from="-20123316#1" to="20129449#3" type="passenger"/>
    <trip id="veh331" depart="319.05" departLane="best" from="20124464" to="118754492#2" type="passenger"/>
    <trip id="veh332" depart="320.01" departLane="best" from="20123316#0" to="379738162" type="passenger"/>
    <trip id="veh333" depart="320.98" departLane="best" from="20139428" to="20123316#1" type="passenger"/>
    <trip id="veh334" depart="321.94" departLane="best" from="20116617#0" to="379738162" type="passenger"/>
    <trip id="veh335" depart="322.91" departLane="best" from="-21232570#0" to="19930576" type="passenger"/>
    <trip id="veh336" depart="323.87" departLane="best" from="20116617#0" to="351667209" type="passenger"/>
    <trip id="veh337" depart="324.83" departLane="best" from="21232573#0" to="-20116617#0" type="passenger"/>
    <trip id="veh338" depart="325.80" departLane="best" from="-19930608#31" to="-41163302#5" type="passenger"/>
    <trip id="veh339" depart="326.76" departLane="best" from="-20128721#2" to="-20124464" type="passenger"/>
    <trip id="veh340" depart="327.73" departLane="best" from="20123316#0" to="20129449#3" type="passenger"/>
    <trip id="veh342" depart="329.65" departLane="best" from="-379738162" to="-20116617#0" type="passenger"/>
    <trip id="veh343" depart="330.62" departLane="best" from="-101521972" to="101473342#1" type="passenger"/>
    <trip id="veh344" depart="331.58" departLane="best" from="-20131567#2" to="-21232573#0" type="passenger"/>
    <trip id="veh348" depart="335.44" departLane="best" from="-101521972" to="20135583" type="passenger"/>
    <trip id="veh349" depart="336.40" departLane="best" from="-351667209" to="20124639#14" type="passenger"/>
    <trip id="veh350" depart="337.36" departLane="best" from="413399527#0" to="-20131567#0" type="passenger"/>
    <trip id="veh351" depart="338.33" departLane="best" from="139470231" to="20123316#1" type="passenger"/>
    <trip id="veh353" depart="340.26" departLane="best" from="-20135583" to="-41405321#12" type="passenger"/>
    <trip id="veh355" depart="342.18" departLane="best" from="-20131567#2" to="20128721#2" type="passenger"/>
    <trip id="veh356" depart="343.15" departLane="best" from="-20128721#2" to="40597180#0" type="passenger"/>
    <trip id="veh358" depart="345.08" departLane="best" from="-23958820#1" to="-413399527#0" type="passenger"/>
    <trip id="veh359" depart="346.04" departLane="best" from="-20131567#2" to="509080961#1" type="passenger"/>
    <trip id="veh360" depart="347.00" departLane="best" from="-20137823" to="15179098#3" type="passenger"/>
    <trip id="veh361" depart="347.97" departLane="best" from="-509257352" to="101274695#5" type="passenger"/>
    <trip id="veh364" depart="350.86" departLane="best" from="20128721#1" to="-20139428" type="passenger"/>
    <trip id="veh365" depart="351.82" departLane="best" from="-512390470" to="379738162" type="passenger"/>
    <trip id="veh366" depart="352.79" departLane="best" from="-23958814#3" to="20128721#2" type="passenger"/>
    <trip id="veh367" depart="353.75" departLane="best" from="-17821059#0" to="509257352" type="passenger"/>
    <trip id="veh368" depart="354.71" departLane="best" from="17821059#1" to="-21232570#4" type="passenger"/>
    <trip id="veh369" depart="355.68" departLane="best" from="-19930608#14" to="19930578#0" type="passenger"/>
    <trip id="veh371" depart="357.61" departLane="best" from="76536995#0" to="351667209" type="passenger"/>
    <trip id="veh372" depart="358.57" departLane="best" from="-273030038#0" to="-20123316#0" type="passenger"/>
    <trip id="veh374" depart="360.50" departLane="best" from="20124464" to="15089727#4" type="passenger"/>
    <trip id="veh375" depart="361.46" departLane="best" from="76536995#0" to="-21232573#0" type="passenger"/>
    <trip id="veh376" depart="362.43" departLane="best" from="-568827657#0" to="-76536995#0" type="passenger"/>
    <trip id="veh377" depart="363.39" departLane="best" from="413399527#0" to="15089727#2" type="passenger"/>
    <trip id="veh378" depart="364.35" departLane="best" from="390634953#0" to="23958820#1" type="passenger"/>
    <trip id="veh379" depart="365.32" departLane="best" from="-20128629" to="20136881" type="passenger"/>
    <trip id="veh380" depart="366.28" departLane="best" from="-20140332" to="379738162" type="passenger"/>
    <trip id="veh381" depart="367.24" departLane="best" from="-40597179#2" to="20140332" type="passenger"/>
    <trip id="veh382" depart="368.21" departLane="best" from="-20128629" to="-40597178#5" type="passenger"/>
    <trip id="veh383" depart="369.17" departLane="best" from="139470231" to="76536995#7" type="passenger"/>
    <trip id="veh385" depart="371.10" departLane="best" from="-509257352" to="-512614095#0" type="passenger"/>
    <trip id="veh386" depart="372.06" departLane="best" from="-568827657#4" to="19930576" type="passenger"/>
    <trip id="veh387" depart="373.03" departLane="best" from="-23958820#1" to="-413399527#0" type="passenger"/>
    <trip id="veh396" depart="381.70" departLane="best" from="139470231" to="23958820#1" type="passenger"/>