<?xml version="1.0" encoding="UTF-8"?>

<!-- generated on Fri Apr 27 22:39:06 2018 by SUMO polyconvert Version 0.32.0
<?xml version="1.0" encoding="UTF-8"?>

<configuration xmlns:xsi="http://www.w3.org/2001/XMLSchema-instance" xsi:noNamespaceSchemaLocation="http://sumo.dlr.de/xsd/polyconvertConfiguration.xsd">

    <input>
        <net-file value="/mnt/c/my_programs/SCHOOL/MSD/GIT/core/tests/ImagineRIT/rit_busy1/2018-04-27-22-39-00/osm.net.xml"/>
        <osm-files value="osm_bbox.osm.xml"/>
        <osm.keep-full-type value="true"/>
        <type-file value="/home/gsoponski/sumo-0.32.0/data/typemap/osmPolyconvert.typ.xml"/>
    </input>

    <output>
        <output-file value="/mnt/c/my_programs/SCHOOL/MSD/GIT/core/tests/ImagineRIT/rit_busy1/2018-04-27-22-39-00/osm.poly.xml"/>
    </output>

    <processing>
        <poi-layer-offset value="5"/>
    </processing>

    <report>
        <verbose value="true"/>
    </report>

</configuration>
-->

<additional xmlns:xsi="http://www.w3.org/2001/XMLSchema-instance" xsi:noNamespaceSchemaLocation="http://sumo.dlr.de/xsd/additional_file.xsd">
    <location netOffset="-276901.20,-4768446.67" convBoundary="-21783.17,-18042.48,8803.33,9045.65" origBoundary="-78.009643,42.870737,-77.633077,43.115560" projParameter="+proj=utm +zone=18 +ellps=WGS84 +datum=WGS84 +units=m +no_defs"/>

    <poly id="100898072" type="landuse.grass" color="194,194,130" fill="1" layer="-3.00" shape="5499.14,5340.61 5522.46,5340.18 5529.91,5311.80 5526.25,5201.86 5496.74,5202.41 5499.14,5340.61"/>
    <poly id="100898073" type="leisure.pitch" color="207,245,201" fill="1" layer="-2.00" shape="5574.67,5414.10 5575.84,5521.20 5647.32,5519.27 5645.11,5413.32 5574.67,5414.10"/>
    <poly id="100898073#1" type="sport.soccer" color="79,230,125" fill="1" layer="-2.00" shape="5574.67,5414.10 5575.84,5521.20 5647.32,5519.27 5645.11,5413.32 5574.67,5414.10"/>
    <poly id="100898082" type="building.university" color="255,230,230" fill="1" layer="-1.00" shape="5398.24,5393.53 5404.70,5393.40 5404.49,5387.86 5398.04,5388.10 5398.24,5393.53"/>
    <poly id="100898115" type="leisure.park" color="207,245,201" fill="1" layer="-2.00" shape="5105.65,5280.67 5107.95,5282.30 5110.24,5283.73 5119.02,5284.95 5126.71,5282.99 5143.59,5282.56 5143.42,5276.01 5143.09,5263.34 5142.25,5231.36 5104.86,5231.98 5105.65,5280.67"/>
    <poly id="100898120" type="amenity.parking" color="184,184,179" fill="1" layer="-1.00" shape="4982.80,5037.14 4994.10,5036.86 4993.74,5020.11 4993.47,5007.86 4982.12,5008.22 4982.79,5032.50 4982.80,5037.14"/>
    <poly id="101006726" type="natural.wood" color="140,196,107" fill="1" layer="-4.00" shape="5575.09,4763.07 5554.69,4771.74 5461.26,4735.04 5456.25,4739.94 5450.05,4745.99 5435.55,4760.15 5516.22,4810.74 5513.17,4829.16 5408.59,4821.42 5400.72,4808.71 5370.38,4847.90 5398.86,4856.78 5419.61,4857.08 5419.76,4853.82 5421.17,4850.77 5457.35,4851.49 5456.95,4858.51 5460.03,4861.04 5461.24,4864.49 5462.27,4872.09 5467.64,4883.19 5508.01,4875.05 5544.09,4872.40 5546.92,4944.50 5551.60,4955.59 5552.95,4958.80 5553.22,4961.41 5565.71,5071.91 5569.05,5081.24 5585.50,5120.84 5590.81,5140.56 5593.65,5150.96 5599.01,5159.82 5611.15,5161.37 5634.53,5172.54 5641.30,5173.33 5646.90,5172.33 5657.74,5169.79 5675.42,5165.21 5689.71,5165.54 5702.06,5168.10 5704.54,5162.85 5723.80,5172.49 5729.79,5162.64 5734.57,5154.78 5735.50,5147.49 5739.04,5119.77 5743.24,5114.49 5757.55,5085.43 5760.74,5079.52 5752.22,5064.27 5730.82,5026.23 5726.85,4989.88 5756.33,4909.46 5870.32,4941.82 5912.01,4959.08 5948.91,4977.90 5925.18,5050.90 6044.89,5052.01 6082.30,5086.88 6082.17,5083.16 6081.06,5053.65 6062.19,4889.28 5975.94,4883.57 5974.33,4737.69 5927.10,4702.51 5877.13,4673.12 5831.96,4656.30 5781.49,4644.29 5735.75,4640.22 5686.03,4639.35 5653.23,4641.47 5710.56,4783.19 5575.09,4763.07"/>
    <poly id="101012255" type="amenity.parking" color="184,184,179" fill="1" layer="-1.00" shape="5752.22,5064.27 5774.75,5063.89 5774.67,5059.60 5774.59,5055.00 5774.11,5026.89 5751.58,5027.27 5752.22,5064.27"/>
    <poly id="101012257" type="landuse.grass" color="194,194,130" fill="1" layer="-3.00" shape="5751.58,5027.27 5774.11,5026.89 5774.59,5055.00 5925.18,5050.90 5948.91,4977.90 5912.01,4959.08 5870.32,4941.82 5756.33,4909.46 5726.85,4989.88 5730.82,5026.23 5752.22,5064.27 5751.58,5027.27"/>
    <poly id="101012444" type="landuse.grass" color="194,194,130" fill="1" layer="-3.00" shape="5974.33,4737.69 5975.94,4883.57 6062.19,4889.28 6053.40,4859.30 6033.07,4814.17 6006.58,4775.21 5974.33,4737.69"/>
    <poly id="101081054" type="natural.wetland" color="181,209,209" fill="1" layer="-4.00" shape="5130.09,4879.93 5131.04,4911.67 5131.30,4931.36 5132.46,4966.33 5154.09,5004.22 5166.62,5009.35 5192.94,5009.07 5203.29,5018.75 5220.09,5018.45 5219.51,5011.50 5218.32,5000.12 5204.20,4949.13 5192.95,4922.05 5172.12,4889.95 5164.41,4882.53 5156.08,4876.44 5147.51,4871.62 5140.74,4863.30 5109.14,4841.89 5097.97,4833.49 5089.12,4827.21 5079.06,4819.17 5068.42,4810.96 5061.37,4805.61 5048.49,4796.52 5033.87,4787.48 5019.27,4779.41 5010.93,4775.83 5003.17,4777.30 5000.73,4786.56 5000.63,4815.52 5001.59,4857.21 5002.04,4866.90 5002.32,4894.47 5002.36,4909.40 5007.28,4909.04 5023.25,4907.29 5028.61,4905.12 5030.80,4901.87 5030.41,4882.30 5059.92,4881.59 5130.09,4879.93"/>
    <poly id="101082795" type="natural.wood" color="140,196,107" fill="1" layer="-4.00" shape="4589.60,5354.37 4642.32,5423.05 4678.17,5462.68 4722.88,5500.51 4768.42,5528.23 4815.76,5550.41 4829.56,5545.45 4813.52,5509.99 4792.21,5493.61 4719.91,5448.62 4703.48,5419.72 4692.18,5381.56 4672.77,5345.23 4637.20,5322.44 4613.13,5324.58 4589.82,5339.97 4589.60,5354.37"/>
    <poly id="101082797" type="amenity.parking" color="184,184,179" fill="1" layer="-1.00" shape="4600.77,5236.92 4611.39,5255.39 4672.53,5273.37 4693.14,5199.13 4694.40,5195.19 4711.29,5196.75 4724.95,5197.67 4730.59,5197.85 4733.90,5196.42 4737.38,5194.04 4739.88,5191.26 4742.56,5187.76 4744.54,5184.96 4746.41,5182.15 4748.87,5176.83 4750.05,5173.73 4750.92,5171.04 4725.06,5170.86 4698.55,5166.15 4659.73,5154.42 4610.80,5131.92 4611.53,5134.28 4611.46,5136.51 4610.43,5139.15 4593.28,5160.69 4582.37,5174.21 4581.06,5176.66 4581.01,5179.38 4583.13,5184.56 4589.95,5200.97 4593.88,5210.44 4596.40,5220.77 4598.87,5229.90 4599.45,5232.06 4600.77,5236.92"/>
    <poly id="101082802" type="landuse.grass" color="194,194,130" fill="1" layer="-3.00" shape="4553.42,5206.64 4565.00,5207.76 4587.54,5214.77 4590.74,5213.66 4593.88,5210.44 4589.95,5200.97 4583.13,5184.56 4581.01,5179.38 4581.06,5176.66 4582.37,5174.21 4577.81,5170.15 4564.02,5159.19 4592.35,5125.14 4605.86,5136.30 4588.54,5157.12 4593.28,5160.69 4606.27,5144.66 4608.22,5142.20 4610.43,5139.15 4611.46,5136.51 4611.53,5134.28 4610.80,5131.92 4608.59,5128.57 4591.63,5112.71 4579.67,5098.11 4569.65,5083.04 4565.42,5074.99 4562.31,5066.61 4560.47,5059.84 4556.59,5047.06 4553.62,5033.73 4552.94,5020.61 4551.75,5014.49 4547.90,5010.56 4544.01,5009.62 4539.86,5010.06 4536.55,5012.85 4534.71,5016.66 4534.86,5021.43 4534.99,5026.49 4536.57,5067.79 4539.04,5118.31 4540.75,5164.50 4542.81,5205.51 4553.42,5206.64"/>
    <poly id="101082805" type="building.yes" color="255,230,230" fill="1" layer="-1.00" shape="4553.33,5206.81 4553.14,5216.73 4564.54,5217.40 4565.00,5207.76 4553.33,5206.81"/>
    <poly id="101082810" type="landuse.grass" color="194,194,130" fill="1" layer="-3.00" shape="4764.14,5172.31 4756.29,5170.52 4750.92,5171.04 4750.05,5173.73 4748.87,5176.83 4746.41,5182.15 4744.54,5184.96 4742.56,5187.76 4739.88,5191.26 4737.38,5194.04 4733.90,5196.42 4730.59,5197.85 4724.95,5197.67 4711.29,5196.75 4694.40,5195.19 4693.14,5199.13 4672.53,5273.37 4611.39,5255.39 4600.77,5236.92 4599.45,5232.06 4598.87,5229.90 4596.40,5220.77 4594.19,5220.53 4592.22,5221.64 4591.22,5223.59 4590.69,5234.35 4588.47,5244.31 4583.80,5250.17 4579.35,5252.44 4560.21,5255.41 4552.57,5242.68 4553.22,5206.78 4542.81,5205.51 4543.77,5235.40 4547.88,5260.58 4551.79,5275.75 4556.39,5293.22 4563.20,5309.86 4570.04,5324.50 4573.57,5326.96 4578.66,5328.17 4583.41,5327.64 4596.08,5320.39 4608.52,5315.42 4620.09,5311.77 4630.18,5311.38 4637.40,5312.58 4644.59,5315.02 4653.53,5319.54 4675.54,5334.78 4681.77,5338.23 4687.08,5338.08 4692.19,5336.73 4696.86,5334.19 4709.65,5314.75 4705.39,5308.91 4704.51,5270.89 4703.56,5230.28 4729.93,5228.98 4733.96,5220.99 4738.95,5218.57 4757.61,5218.05 4802.91,5217.08 4802.73,5209.53 4800.34,5209.32 4797.83,5208.46 4795.63,5206.78 4794.00,5205.09 4792.83,5202.57 4792.63,5199.75 4792.77,5197.63 4793.78,5195.29 4794.74,5193.59 4796.42,5191.93 4797.64,5190.75 4789.07,5184.76 4778.27,5179.00 4772.47,5176.46 4764.14,5172.31"/>
    <poly id="101082813" type="amenity.parking" color="184,184,179" fill="1" layer="-1.00" shape="4705.39,5308.91 4709.65,5314.75 4716.62,5324.30 4731.00,5326.05 4733.07,5326.01 4746.89,5325.79 4746.49,5307.29 4745.24,5250.75 4745.06,5242.77 4744.94,5237.34 4758.02,5237.06 4757.61,5218.05 4738.95,5218.57 4733.96,5220.99 4729.93,5228.98 4703.56,5230.28 4704.51,5270.89 4705.39,5308.91"/>
    <poly id="101082815" type="landuse.grass" color="194,194,130" fill="1" layer="-3.00" shape="4516.54,5386.48 4564.75,5459.02 4622.40,5529.00 4761.44,5676.83 4841.74,5576.55 4788.88,5557.85 4729.03,5522.72 4701.11,5500.15 4671.50,5476.23 4627.26,5423.96 4579.33,5357.83 4566.50,5354.88 4520.93,5376.44 4516.54,5386.48"/>
    <poly id="101082823" type="natural.water" color="181,209,209" fill="1" layer="-4.00" shape="4971.18,5619.27 4962.86,5632.36 4959.33,5639.73 4956.67,5647.06 4955.28,5654.61 4957.01,5661.57 4959.97,5667.73 4970.50,5684.23 4985.63,5688.67 4984.34,5691.84 4982.80,5694.63 4982.14,5697.53 4983.43,5700.30 4988.29,5710.26 4991.18,5716.21 4996.40,5719.71 5000.93,5723.95 5005.90,5726.29 5007.38,5725.36 5008.32,5723.91 5003.23,5717.37 4997.61,5712.22 5002.28,5707.15 5003.37,5709.86 5005.50,5713.55 5010.27,5720.07 5015.23,5719.61 5015.68,5716.80 5007.75,5706.06 5007.88,5677.88 5006.16,5675.51 5003.49,5674.34 4998.71,5673.99 4989.13,5673.67 4979.91,5665.72 4984.69,5653.54 4997.36,5650.73 4994.87,5655.85 4994.23,5660.79 4995.17,5665.22 4998.29,5668.91 5003.98,5669.94 5009.10,5669.28 5013.96,5668.12 5019.22,5665.84 5014.73,5660.85 5009.20,5656.52 5003.40,5651.95 5009.00,5647.96 5008.70,5638.68 4997.54,5634.57 4998.52,5628.85 5007.97,5626.68 5012.81,5616.22 5018.82,5610.19 5011.12,5606.66 5008.11,5598.50 5000.51,5598.06 4989.99,5603.55 4987.18,5607.82 4986.19,5613.98 4991.03,5625.16 4991.36,5628.82 4989.96,5632.12 4971.18,5619.27"/>
    <poly id="101082826" type="building.yes" color="255,230,230" fill="1" layer="-1.00" shape="4552.57,5242.68 4561.26,5242.79 4583.12,5243.12 4583.71,5229.26 4552.97,5229.04 4552.57,5242.68"/>
    <poly id="101082827" type="natural.wetland" color="181,209,209" fill="1" layer="-4.00" shape="4761.44,5676.83 4824.22,5753.20 4885.36,5727.62 4916.12,5728.43 4921.58,5698.97 4936.53,5700.65 4929.85,5728.24 4969.14,5727.74 4970.70,5720.74 4972.68,5711.91 4948.78,5679.64 4941.63,5665.88 4938.93,5653.43 4945.61,5628.94 4949.87,5614.28 4945.20,5601.99 4841.74,5576.55 4761.44,5676.83"/>
    <poly id="101086040" type="landuse.grass" color="194,194,130" fill="1" layer="-3.00" shape="4941.17,5753.86 4872.03,5754.14 4844.01,5774.02 4880.76,5811.62 4920.12,5815.21 4960.39,5813.39 4963.04,5794.43 4949.35,5781.10 4941.17,5753.86"/>
    <poly id="101086043" type="natural.wetland" color="181,209,209" fill="1" layer="-4.00" shape="6086.62,4895.69 6099.49,5029.60 6125.70,5042.87 6193.73,5041.58 6189.06,4941.80 6176.20,4933.20 6157.20,4882.29 6086.62,4895.69"/>
    <poly id="101086045" type="natural.wetland" color="181,209,209" fill="0" layer="-4.00" shape="6208.21,4849.06 6212.96,4933.48 6199.35,4940.44 6203.31,5042.00 6509.80,5034.09 6507.07,4947.84"/>
    <poly id="101086050" type="natural.wood" color="140,196,107" fill="1" layer="-4.00" shape="5881.51,5739.35 5952.60,5897.16 6015.49,5878.37 5959.73,5754.40 5941.30,5738.69 5907.36,5730.22 5872.69,5719.78 5881.51,5739.35"/>
    <poly id="101086052" type="landuse.grass" color="194,194,130" fill="1" layer="-3.00" shape="5428.42,6065.80 5432.53,6065.34 5434.73,6069.96 5440.14,6072.65 5485.42,6072.44 5477.27,5895.37 5466.64,5914.53 5437.21,5938.17 5429.81,5958.59 5428.42,6065.80"/>
    <poly id="101086056" type="natural.wetland" color="181,209,209" fill="1" layer="-4.00" shape="6048.13,5682.40 6022.18,5702.13 5984.45,5717.35 6049.55,5871.75 6057.13,5889.72 6090.25,5968.30 6133.47,5962.41 6183.86,5998.88 6190.17,5993.53 6188.32,5978.32 6162.44,5940.71 6164.56,5921.40 6259.13,5880.31 6296.16,5904.31 6338.69,5906.60 6342.03,5880.26 6397.96,5886.87 6402.00,5940.70 6420.24,5935.86 6422.89,5917.06 6724.84,5913.81 6729.82,5839.00 6787.44,5807.41 6776.69,5788.46 6680.97,5713.50 6611.71,5624.47 6566.59,5423.06 6274.47,5427.73 6256.17,5428.03 6124.56,5430.14 6124.20,5451.38 6158.12,5454.27 6196.31,5555.04 6162.13,5682.01 6142.64,5690.49 6127.90,5701.43 6101.79,5711.54 6081.62,5729.41 6062.26,5704.53 6055.14,5678.95 6048.13,5682.40"/>
    <poly id="101086062" type="natural.wetland" color="181,209,209" fill="1" layer="-4.00" shape="6103.91,5071.62 6104.08,5104.66 6104.15,5120.15 6104.74,5240.82 6114.32,5240.87 6114.54,5235.49 6171.88,5233.81 6248.52,5397.61 6324.90,5386.93 6321.18,5291.90 6358.28,5290.21 6364.84,5273.29 6341.71,5252.62 6378.48,5226.49 6510.34,5208.75 6634.47,5166.00 6499.39,5162.57 6379.93,5151.66 6221.35,5153.96 6186.14,5072.14 6180.20,5073.46 6103.91,5071.62"/>
    <poly id="101086067" type="landuse.grass" color="194,194,130" fill="1" layer="-3.00" shape="5344.31,6067.35 5342.15,5981.10 5341.57,5957.76 5340.43,5797.53 5340.00,5784.29 5337.91,5775.28 5326.36,5771.85 5127.47,5760.17 5024.40,5756.54 4941.17,5753.86 4872.03,5754.14 4844.01,5774.02 4836.77,5766.41 4842.82,5761.35 4856.45,5753.62 4871.16,5748.69 4891.75,5746.75 4952.25,5746.34 5037.66,5746.07 5299.94,5757.87 5329.50,5759.81 5341.17,5763.69 5350.84,5771.63 5354.71,5779.01 5355.55,5785.31 5357.59,5890.87 5365.84,5905.63 5377.52,5918.45 5386.84,5924.92 5399.96,5936.72 5406.46,5956.53 5406.34,6043.97 5406.31,6058.47 5404.29,6066.65 5402.16,6064.07 5397.36,6067.69 5344.31,6067.35"/>
    <poly id="101086070" type="landuse.grass" color="194,194,130" fill="1" layer="-3.00" shape="5373.02,5894.24 5462.25,5892.46 5457.32,5682.99 5455.57,5675.30 5450.75,5665.94 5440.26,5652.02 5424.90,5642.50 5410.29,5640.72 5395.61,5644.94 5382.34,5654.12 5372.95,5666.43 5368.85,5679.81 5373.02,5894.24"/>
    <poly id="101086074" type="waterway.stream" color="181,209,209" fill="0" layer="-4.00" shape="5516.94,6069.19 5747.53,6065.50 5760.38,6065.29 5868.91,5954.04 5947.92,5912.80 6060.96,5878.98 6120.55,5861.48 6208.30,5789.62 6286.42,5679.34 6306.93,5631.57 6301.43,5540.08 6268.82,5431.38 6204.62,5266.23 6162.33,5179.14 6114.39,5118.04"/>
    <poly id="101086075" type="landuse.recreation_ground" color="194,194,130" fill="1" layer="-3.00" shape="6055.14,5678.95 6062.26,5704.53 6081.62,5729.41 6101.79,5711.54 6127.90,5701.43 6142.64,5690.49 6162.13,5682.01 6196.31,5555.04 6158.12,5454.27 6124.20,5451.38 6115.83,5484.98 6115.30,5557.68 6109.69,5586.27 6100.84,5612.97 6090.04,5634.65 6076.82,5654.20 6055.14,5678.95"/>
    <poly id="101086079" type="natural.wetland" color="181,209,209" fill="1" layer="-4.00" shape="5506.25,5855.88 5512.73,6058.99 5758.59,6057.21 5766.79,6046.73 5777.26,6030.56 5816.70,5990.61 5841.49,5965.51 5861.50,5945.24 5940.45,5902.06 5874.47,5751.34 5841.17,5738.13 5838.80,5747.52 5835.70,5766.85 5828.09,5777.42 5827.08,5810.27 5798.74,5809.81 5788.19,5817.55 5733.45,5821.56 5725.20,5814.22 5725.34,5773.71 5716.18,5760.28 5610.03,5757.33 5580.46,5749.04 5579.95,5764.61 5610.65,5780.34 5612.69,5797.00 5588.40,5800.40 5582.42,5805.44 5583.98,5814.58 5587.81,5853.92 5506.25,5855.88"/>
    <poly id="101086575" type="natural.wood" color="140,196,107" fill="1" layer="-4.00" shape="4363.99,4784.84 4431.52,5180.82 4440.43,5233.09 4452.33,5263.72 4461.10,5286.31 4481.85,5324.50 4500.01,5357.92 4512.59,5363.57 4556.60,5341.13 4560.35,5327.78 4546.56,5292.15 4540.96,5266.59 4536.00,5239.17 4527.68,5056.54 4521.71,4902.91 4529.55,4841.81 4470.06,4810.63 4452.82,4811.51 4431.05,4805.08 4394.59,4783.51 4368.80,4742.60 4366.31,4732.92 4351.40,4674.85 4362.67,4619.21 4378.56,4602.88 4397.88,4604.28 4457.50,4638.50 4460.22,4646.40 4487.01,4661.61 4494.73,4654.75 4503.83,4639.47 4491.85,4630.73 4429.66,4601.86 4361.35,4580.42 4321.54,4582.04 4363.99,4784.84"/>
    <poly id="101086577" type="natural.wood" color="140,196,107" fill="1" layer="-4.00" shape="4496.50,4672.87 4490.43,4683.43 4483.46,4718.11 4569.59,4756.43 4555.86,4798.12 4622.59,4744.77 4624.72,4737.60 4611.63,4712.01 4591.61,4689.90 4558.72,4663.20 4523.16,4644.00 4515.39,4645.94 4496.50,4672.87"/>
    <poly id="101088324" type="amenity.parking" color="184,184,179" fill="1" layer="-1.00" shape="6265.91,5941.43 6337.61,5940.50 6338.69,5906.60 6296.16,5904.31 6266.46,5906.12 6265.91,5941.43"/>
    <poly id="101088327" type="building.yes" color="255,230,230" fill="1" layer="-1.00" shape="6307.99,5941.53 6299.50,5941.53 6299.38,5948.00 6299.45,5960.45 6272.59,5959.97 6272.55,5962.54 6267.35,5962.44 6267.14,5975.88 6272.32,5975.96 6271.97,5999.44 6260.60,5999.28 6260.41,6012.90 6301.10,6013.49 6300.95,6023.57 6300.79,6037.46 6309.30,6037.55 6309.29,6023.71 6309.78,6010.34 6379.44,6011.94 6380.59,5963.34 6359.94,5962.86 6359.34,5987.80 6363.12,5987.88 6363.04,5990.86 6327.56,5989.97 6328.35,5959.29 6308.13,5958.77 6307.92,5947.73 6307.99,5941.53"/>
    <poly id="101088327#1" type="tourism.hotel" color="207,245,201" fill="1" layer="-2.00" shape="6307.99,5941.53 6299.50,5941.53 6299.38,5948.00 6299.45,5960.45 6272.59,5959.97 6272.55,5962.54 6267.35,5962.44 6267.14,5975.88 6272.32,5975.96 6271.97,5999.44 6260.60,5999.28 6260.41,6012.90 6301.10,6013.49 6300.95,6023.57 6300.79,6037.46 6309.30,6037.55 6309.29,6023.71 6309.78,6010.34 6379.44,6011.94 6380.59,5963.34 6359.94,5962.86 6359.34,5987.80 6363.12,5987.88 6363.04,5990.86 6327.56,5989.97 6328.35,5959.29 6308.13,5958.77 6307.92,5947.73 6307.99,5941.53"/>
    <poly id="101088332" type="amenity.parking" color="184,184,179" fill="1" layer="-1.00" shape="6383.13,6011.30 6395.26,6011.60 6394.82,6029.78 6400.97,6029.93 6402.60,5964.35 6384.31,5963.91 6383.13,6011.30"/>
    <poly id="101088335" type="landuse.grass" color="194,194,130" fill="1" layer="-3.00" shape="6337.61,5940.50 6337.90,5946.77 6402.59,5948.76 6402.00,5940.70 6397.96,5886.87 6342.03,5880.26 6338.69,5906.60 6337.61,5940.50"/>
    <poly id="101088340" type="landuse.grass" color="194,194,130" fill="1" layer="-3.00" shape="6190.17,5993.53 6197.16,6005.24 6222.30,6002.84 6224.35,5943.01 6265.91,5941.43 6266.46,5906.12 6296.16,5904.31 6259.13,5880.31 6164.56,5921.40 6162.44,5940.71 6188.32,5978.32 6190.17,5993.53"/>
    <poly id="101088342" type="amenity.parking" color="184,184,179" fill="1" layer="-1.00" shape="6241.35,6049.68 6374.03,6053.47 6374.97,6021.36 6385.24,6021.65 6385.42,6015.14 6320.25,6013.28 6320.05,6020.06 6312.32,6019.84 6311.72,6040.62 6297.13,6040.20 6297.50,6027.27 6242.04,6025.68 6241.35,6049.68"/>
    <poly id="101260367" type="landuse.grass" color="194,194,130" fill="1" layer="-3.00" shape="5316.21,5211.93 5324.36,5211.64 5324.29,5206.65 5316.06,5206.89 5316.21,5211.93"/>
    <poly id="101260380" type="landuse.grass" color="194,194,130" fill="1" layer="-3.00" shape="5281.31,5265.33 5280.91,5269.51 5281.57,5274.12 5283.30,5278.05 5285.98,5282.18 5289.76,5285.46 5301.60,5285.81 5296.86,5281.97 5290.90,5275.89 5289.46,5267.83 5291.79,5258.74 5293.03,5257.08 5295.34,5255.70 5299.75,5255.13 5295.53,5253.03 5291.90,5250.74 5290.03,5250.37 5287.22,5251.36 5285.11,5253.63 5283.48,5256.31 5282.37,5260.31 5281.76,5263.21 5281.31,5265.33"/>
    <poly id="101260387" type="leisure.park" color="207,245,201" fill="1" layer="-2.00" shape="5301.60,5285.81 5304.98,5285.55 5307.46,5284.65 5309.02,5283.74 5310.03,5282.67 5311.60,5280.82 5312.30,5278.78 5312.51,5274.93 5311.33,5270.38 5309.88,5266.01 5308.09,5263.30 5305.64,5260.00 5302.99,5257.41 5299.75,5255.13 5295.34,5255.70 5293.03,5257.08 5291.79,5258.74 5289.46,5267.83 5290.90,5275.89 5296.86,5281.97 5301.60,5285.81"/>
    <poly id="101260392" type="landuse.grass" color="194,194,130" fill="1" layer="-3.00" shape="5218.22,5291.25 5217.17,5243.37 5216.82,5240.30 5221.23,5241.26 5226.03,5242.54 5229.15,5245.24 5231.87,5249.66 5235.00,5260.34 5238.39,5265.78 5243.75,5270.31 5251.44,5274.50 5258.69,5276.52 5263.51,5277.24 5265.68,5278.30 5267.36,5279.75 5268.28,5283.09 5268.63,5289.87 5218.22,5291.25"/>
    <poly id="101260401" type="landuse.grass" color="194,194,130" fill="1" layer="-3.00" shape="5362.35,5265.01 5367.92,5264.64 5375.13,5263.67 5375.19,5258.86 5375.06,5254.99 5376.30,5250.77 5377.52,5246.44 5377.26,5241.75 5375.56,5237.51 5372.19,5233.75 5369.26,5231.03 5363.97,5229.73 5361.47,5229.69 5362.35,5265.01"/>
    <poly id="101260406" type="landuse.grass" color="194,194,130" fill="1" layer="-3.00" shape="5324.19,5215.75 5321.00,5215.84 5319.86,5217.41 5319.81,5222.85 5317.57,5228.04 5314.64,5233.35 5311.96,5237.04 5310.27,5240.91 5309.23,5245.68 5309.11,5250.68 5309.76,5255.40 5311.25,5259.94 5315.08,5266.84 5316.11,5275.14 5324.77,5275.01 5324.19,5215.75"/>
    <poly id="101260412" type="landuse.grass" color="194,194,130" fill="1" layer="-3.00" shape="5305.44,5204.90 5285.00,5205.68 5282.94,5205.76 5281.50,5207.01 5280.49,5208.78 5280.04,5210.61 5280.44,5212.41 5281.51,5213.72 5282.70,5214.55 5284.44,5214.96 5293.60,5213.16 5303.17,5212.81 5306.75,5212.67 5311.28,5212.52 5311.27,5206.80 5305.43,5206.99 5305.44,5204.90"/>
    <poly id="101260424" type="landuse.grass" color="194,194,130" fill="1" layer="-3.00" shape="5405.13,5248.58 5407.00,5254.48 5407.31,5261.07 5409.91,5276.87 5415.15,5273.36 5418.34,5268.13 5418.76,5261.53 5417.00,5255.63 5413.20,5251.67 5408.80,5248.68 5405.13,5248.58"/>
    <poly id="101260427" type="landuse.grass" color="194,194,130" fill="1" layer="-3.00" shape="5429.58,5209.29 5426.92,5209.59 5424.63,5210.18 5422.58,5211.61 5420.57,5214.18 5418.80,5216.53 5417.28,5219.73 5416.34,5221.58 5415.31,5223.76 5415.27,5225.56 5416.04,5226.78 5418.11,5228.16 5419.72,5230.20 5421.65,5235.07 5421.46,5239.65 5420.27,5242.09 5418.77,5244.34 5416.98,5246.18 5416.27,5248.31 5417.44,5250.98 5419.55,5254.78 5421.11,5257.56 5422.82,5261.99 5424.42,5266.02 5426.50,5268.57 5426.72,5269.63 5429.27,5269.44 5429.32,5268.40 5429.58,5209.29"/>
    <poly id="101260431" type="landuse.grass" color="194,194,130" fill="1" layer="-3.00" shape="5238.67,5259.30 5241.77,5263.58 5246.18,5268.17 5254.07,5271.82 5258.58,5273.11 5263.22,5273.60 5266.89,5273.56 5270.25,5272.67 5273.75,5269.61 5274.59,5264.19 5271.37,5252.32 5264.84,5245.08 5260.42,5242.73 5255.04,5240.97 5248.03,5240.76 5246.54,5241.31 5245.83,5242.83 5246.25,5244.41 5246.23,5246.05 5245.76,5247.62 5244.87,5249.04 5243.61,5250.17 5242.10,5250.91 5240.05,5251.21 5238.03,5250.81 5236.73,5252.47 5236.59,5255.06 5238.67,5259.30"/>
    <poly id="101260436" type="landuse.grass" color="194,194,130" fill="1" layer="-3.00" shape="5264.83,5233.16 5267.67,5232.99 5272.46,5229.45 5274.92,5225.11 5275.27,5216.87 5272.50,5210.33 5268.50,5207.24 5264.58,5206.47 5264.81,5231.23 5264.83,5233.16"/>
    <poly id="101260438" type="landuse.grass" color="194,194,130" fill="1" layer="-3.00" shape="5280.85,5232.52 5283.11,5240.54 5290.24,5245.33 5296.76,5248.53 5301.42,5251.51 5302.94,5251.46 5304.45,5251.07 5305.28,5250.29 5305.41,5246.83 5306.12,5240.78 5307.33,5237.00 5308.70,5233.79 5310.95,5229.82 5311.93,5227.42 5311.86,5225.34 5312.05,5222.39 5310.55,5219.93 5308.06,5218.12 5305.20,5216.64 5302.00,5216.12 5298.91,5216.03 5292.74,5216.56 5288.47,5217.64 5284.91,5219.17 5282.61,5222.62 5281.06,5226.97 5280.85,5232.52"/>
    <poly id="101260440" type="leisure.park" color="207,245,201" fill="1" layer="-2.00" shape="5372.85,5226.39 5375.31,5230.70 5380.36,5234.52 5384.29,5236.18 5387.89,5237.21 5392.81,5236.95 5396.57,5236.31 5399.36,5234.85 5400.21,5231.80 5402.10,5228.80 5405.19,5226.62 5407.77,5225.49 5408.88,5224.20 5409.62,5220.94 5408.87,5217.19 5406.91,5214.95 5404.20,5212.22 5400.55,5209.83 5395.99,5208.09 5392.19,5207.59 5388.84,5207.69 5385.50,5208.32 5381.87,5209.58 5378.86,5210.62 5376.91,5211.94 5374.49,5214.94 5373.08,5216.98 5372.10,5219.20 5371.65,5221.73 5372.85,5226.39"/>
    <poly id="101274677" type="landuse.grass" color="194,194,130" fill="1" layer="-3.00" shape="5202.28,5413.76 5206.81,5408.25 5210.16,5408.07 5210.36,5419.27 5207.50,5419.36 5202.28,5413.76"/>
    <poly id="101274678" type="landuse.grass" color="194,194,130" fill="1" layer="-3.00" shape="5206.67,5483.61 5213.52,5483.58 5213.46,5466.91 5206.61,5466.94 5206.67,5483.61"/>
    <poly id="101274679" type="landuse.grass" color="194,194,130" fill="1" layer="-3.00" shape="5173.15,5382.15 5206.60,5380.66 5208.66,5376.74 5209.17,5371.79 5208.65,5350.40 5185.43,5369.55 5173.15,5373.95 5173.15,5382.15"/>
    <poly id="101274681" type="landuse.grass" color="194,194,130" fill="1" layer="-3.00" shape="6031.56,5226.54 6041.21,5240.92 6048.38,5236.16 6038.72,5221.77 6031.56,5226.54"/>
    <poly id="101274681#1" type="leisure.pitch" color="207,245,201" fill="1" layer="-2.00" shape="6031.56,5226.54 6041.21,5240.92 6048.38,5236.16 6038.72,5221.77 6031.56,5226.54"/>
    <poly id="101274681#2" type="sport.volleyball" color="79,230,125" fill="1" layer="-2.00" shape="6031.56,5226.54 6041.21,5240.92 6048.38,5236.16 6038.72,5221.77 6031.56,5226.54"/>
    <poly id="101274685" type="landuse.grass" color="194,194,130" fill="1" layer="-3.00" shape="6027.97,5219.80 6035.20,5215.05 6025.23,5200.02 6018.00,5204.79 6027.97,5219.80"/>
    <poly id="101274685#1" type="leisure.pitch" color="207,245,201" fill="1" layer="-2.00" shape="6027.97,5219.80 6035.20,5215.05 6025.23,5200.02 6018.00,5204.79 6027.97,5219.80"/>
    <poly id="101274685#2" type="sport.volleyball" color="79,230,125" fill="1" layer="-2.00" shape="6027.97,5219.80 6035.20,5215.05 6025.23,5200.02 6018.00,5204.79 6027.97,5219.80"/>
    <poly id="101274686" type="landuse.grass" color="194,194,130" fill="1" layer="-3.00" shape="5217.38,5494.74 5217.29,5486.46 5225.10,5486.80 5224.98,5490.91 5223.04,5493.30 5217.38,5494.74"/>
    <poly id="101274687" type="amenity.parking" color="184,184,179" fill="1" layer="-1.00" shape="6033.43,5326.97 6036.64,5331.06 6043.03,5327.10 6066.32,5312.70 6064.94,5306.45 6033.43,5326.97"/>
    <poly id="101274689" type="landuse.grass" color="194,194,130" fill="1" layer="-3.00" shape="5224.23,5430.70 5220.62,5430.74 5220.92,5447.96 5224.37,5447.93 5224.23,5430.70"/>
    <poly id="101274691" type="amenity.parking" color="184,184,179" fill="1" layer="-1.00" shape="6017.94,5304.72 6017.44,5296.51 6036.68,5284.13 6039.43,5289.04 6017.94,5304.72"/>
    <poly id="101274692" type="landuse.grass" color="194,194,130" fill="1" layer="-3.00" shape="5217.44,5483.44 5216.92,5461.97 5222.80,5461.86 5223.39,5483.18 5217.44,5483.44"/>
    <poly id="101274694" type="landuse.grass" color="194,194,130" fill="1" layer="-3.00" shape="5206.87,5486.38 5213.60,5486.58 5213.77,5494.86 5210.13,5493.81 5207.61,5491.04 5206.87,5486.38"/>
    <poly id="101274696" type="landuse.grass" color="194,194,130" fill="1" layer="-3.00" shape="5173.25,5388.21 5190.58,5389.04 5200.99,5391.72 5203.46,5398.08 5200.57,5404.86 5193.38,5408.27 5187.85,5405.85 5180.45,5405.34 5166.03,5405.97 5166.15,5401.95 5170.17,5401.70 5170.22,5391.44 5173.35,5391.34 5173.25,5388.21"/>
    <poly id="101274700" type="amenity.parking" color="184,184,179" fill="1" layer="-1.00" shape="5840.73,5079.38 5873.45,5078.81 5873.40,5066.59 5900.32,5066.09 5900.31,5060.28 5840.21,5060.32 5840.73,5079.38"/>
    <poly id="101274701" type="landuse.grass" color="194,194,130" fill="1" layer="-3.00" shape="5217.55,5458.10 5224.70,5458.29 5224.63,5451.02 5217.17,5451.26 5217.55,5458.10"/>
    <poly id="101274702" type="landuse.grass" color="194,194,130" fill="1" layer="-3.00" shape="5224.60,5397.48 5220.40,5397.61 5220.51,5427.06 5224.46,5427.10 5224.60,5397.48"/>
    <poly id="101281412" type="leisure.park" color="207,245,201" fill="1" layer="-2.00" shape="5894.35,5397.75 5898.59,5399.44 5902.03,5402.44 5904.15,5406.42 5905.02,5410.33 5904.60,5414.27 5903.04,5417.93 5900.38,5421.06 5896.89,5423.25 5892.90,5424.27 5889.18,5424.14 5885.64,5422.99 5882.55,5420.93 5880.15,5418.11 5878.41,5414.03 5878.10,5409.60 5879.25,5405.33 5881.74,5401.65 5885.41,5398.92 5889.77,5397.57 5894.35,5397.75"/>
    <poly id="101386418" type="building.university" color="255,230,230" fill="1" layer="-1.00" shape="5471.22,5173.83 5473.04,5176.44 5481.60,5185.23 5485.29,5189.03 5499.05,5175.75 5492.75,5168.39 5492.94,5164.07 5494.22,5163.39 5494.01,5156.70 5484.28,5157.12 5484.48,5160.03 5470.93,5160.57 5471.22,5173.83"/>
    <poly id="101425121" type="amenity.parking" color="184,184,179" fill="1" layer="-1.00" shape="5030.41,4882.30 5030.80,4901.87 5030.50,4914.22 5038.74,4913.94 5038.86,4921.63 5081.15,4920.69 5081.18,4913.56 5104.27,4912.81 5118.49,4912.39 5131.04,4911.67 5130.09,4879.93 5059.92,4881.59 5030.41,4882.30"/>
    <poly id="101425126" type="building.residential" color="255,230,230" fill="1" layer="-1.00" shape="5010.21,4718.68 5023.83,4718.47 5023.76,4714.67 5026.12,4714.64 5026.09,4712.26 5030.71,4712.19 5030.59,4704.85 5026.14,4704.93 5025.64,4704.30 5026.12,4703.63 5030.54,4703.55 5030.41,4695.90 5026.38,4695.96 5026.35,4693.63 5024.05,4693.66 5023.98,4689.27 5010.28,4689.48 5010.35,4693.72 5007.93,4693.75 5007.96,4695.86 5003.50,4695.93 5003.62,4703.74 5007.91,4703.67 5007.91,4704.29 5007.93,4704.92 5003.54,4704.98 5003.65,4712.54 5007.77,4712.48 5007.81,4714.71 5010.14,4714.67 5010.21,4718.68"/>