<routes>
        <vType id="typeWE" accel="5" decel="4.5" sigma="0.5" length="5" minGap="2.5" maxSpeed="30" guiShape="passenger"/>
        <vType id="typeNS" accel="0.8" decel="4.5" sigma="0.5" length="7" minGap="3" maxSpeed="25" guiShape="bus"/>

        <route id="right" edges="51o 1i 2o 52i" />
        <route id="left" edges="52o 2i 1o 51i" />
		<route id="up" edges="53o 3i 4o 54i" />
        <route id="down" edges="54o 4i 3o 53i" />

        <vehicle id="left_0" type="typeWE" route="left" depart="0" />
		<vehicle id="up_0" type="typeNS" route="up" depart="0" />
        <vehicle id="left_1" type="typeWE" route="left" depart="2" />
		<vehicle id="up_1" type="typeNS" route="up" depart="2" />
        <vehicle id="right_0" type="typeWE" route="right" depart="3" />
		<vehicle id="down_0" type="typeNS" route="down" depart="3" />
        <vehicle id="right_1" type="typeWE" route="right" depart="4" />
		<vehicle id="down_1" type="typeNS" route="down" depart="4" />
        
		
		

</routes>