<?xml version="1.0" encoding="UTF-8"?>

<!-- generated on 03/23/18 20:43:09 by SUMO duarouter Version 0.31.0
<?xml version="1.0" encoding="UTF-8"?>

<configuration xmlns:xsi="http://www.w3.org/2001/XMLSchema-instance" xsi:noNamespaceSchemaLocation="http://sumo.dlr.de/xsd/duarouterConfiguration.xsd">

    <input>
        <net-file value="cross.net.xml"/>
        <route-files value="cross5.trips.rou.xml"/>
    </input>

    <output>
        <output-file value="cross5.rou.xml"/>
    </output>

    <processing>
        <ignore-errors value="true"/>
    </processing>

</configuration>
-->

<routes xmlns:xsi="http://www.w3.org/2001/XMLSchema-instance" xsi:noNamespaceSchemaLocation="http://sumo.dlr.de/xsd/routes_file.xsd">
    <vType id="default" vClass="passenger" color="red"/>
    <vehicle id="h276c1:1" type="default" depart="129.00" departPos="409.53" arrivalPos="466.80" arrivalSpeed="0.00">
        <route edges="3o 3i 2o"/>
    </vehicle>
    <vehicle id="carIn187:1" type="default" depart="130.00" departPos="243.67" arrivalPos="42.34" arrivalSpeed="0.00">
        <route edges="2i 3o 3i"/>
    </vehicle>
    <vehicle id="h52c1:1" type="default" depart="132.00" departPos="20.94" arrivalPos="231.02" arrivalSpeed="0.00">
        <route edges="4i 3o"/>
    </vehicle>
    <vehicle id="h71c1:1" type="default" depart="144.00" departPos="69.57" arrivalPos="121.72" arrivalSpeed="0.00">
        <route edges="4i 3o 3i"/>
    </vehicle>
    <vehicle id="h160c1:1" type="default" depart="145.00" departPos="183.77" arrivalPos="338.32" arrivalSpeed="0.00">
        <route edges="4o 4i 3o"/>
    </vehicle>
    <vehicle id="h266c1:1" type="default" depart="145.00" departPos="236.46" arrivalPos="306.33" arrivalSpeed="0.00">
        <route edges="3o 3i 4o"/>
    </vehicle>
    <vehicle id="h469c1:1" type="default" depart="157.00" departPos="435.48" arrivalPos="195.91" arrivalSpeed="0.00">
        <route edges="2o 2i 4o 4i"/>
    </vehicle>
    <vehicle id="h37c1:1" type="default" depart="162.00" departPos="162.92" arrivalPos="482.43" arrivalSpeed="0.00">
        <route edges="4i 3o"/>
    </vehicle>
    <vehicle id="h366c1:1" type="default" depart="170.00" departPos="8.91" arrivalPos="297.48" arrivalSpeed="0.00">
        <route edges="2i 3o"/>
    </vehicle>
    <vehicle id="carIn117:1" type="default" depart="175.00" departPos="243.67" arrivalPos="372.96" arrivalSpeed="0.00">
        <route edges="2i 4o 4i"/>
    </vehicle>
    <vehicle id="h230c1:1" type="default" depart="176.00" departPos="84.83" arrivalPos="135.27" arrivalSpeed="0.00">
        <route edges="3i 4o"/>
    </vehicle>
    <vehicle id="h140c1:1" type="default" depart="194.00" departPos="343.49" arrivalPos="34.38" arrivalSpeed="0.00">
        <route edges="4o 4i 2o 2i"/>
    </vehicle>
    <vehicle id="h111c1:1" type="default" depart="196.00" departPos="368.80" arrivalPos="420.16" arrivalSpeed="0.00">
        <route edges="4o 4i 3o 3i"/>
    </vehicle>
    <vehicle id="h301c1:1" type="default" depart="211.00" departPos="466.17" arrivalPos="279.15" arrivalSpeed="0.00">
        <route edges="3o 3i 4o 4i"/>
    </vehicle>
    <vehicle id="h14c1:1" type="default" depart="214.00" departPos="168.87" arrivalPos="47.22" arrivalSpeed="0.00">
        <route edges="4i 3o 3i"/>
    </vehicle>
    <vehicle id="h258c1:1" type="default" depart="215.00" departPos="49.36" arrivalPos="190.13" arrivalSpeed="0.00">
        <route edges="3o 3i 4o 4i"/>
    </vehicle>
    <vehicle id="h320c1:1" type="default" depart="222.00" departPos="349.11" arrivalPos="448.90" arrivalSpeed="0.00">
        <route edges="3o 3i 4o 4i"/>
    </vehicle>
    <vehicle id="carIn42:1" type="default" depart="241.00" departPos="243.67" arrivalPos="483.00" arrivalSpeed="0.00">
        <route edges="3i 4o"/>
    </vehicle>
    <vehicle id="carIn182:1" type="default" depart="242.00" departPos="243.67" arrivalPos="224.51" arrivalSpeed="0.00">
        <route edges="2i 4o 4i"/>
    </vehicle>
    <vehicle id="h114c1:1" type="default" depart="243.00" departPos="346.08" arrivalPos="16.23" arrivalSpeed="0.00">
        <route edges="4o 4i 3o 3i"/>
    </vehicle>
    <vehicle id="h220c1:1" type="default" depart="248.00" departPos="232.64" arrivalPos="306.29" arrivalSpeed="0.00">
        <route edges="3i 2o"/>
    </vehicle>
    <vehicle id="h40c1:1" type="default" depart="250.00" departPos="238.93" arrivalPos="404.63" arrivalSpeed="0.00">
        <route edges="4i 3o"/>
    </vehicle>
    <vehicle id="h314c1:1" type="default" depart="250.00" departPos="218.80" arrivalPos="262.91" arrivalSpeed="0.00">
        <route edges="3o 3i 4o"/>
    </vehicle>
    <vehicle id="h71c2:1" type="default" depart="252.00" departPos="69.57" arrivalPos="183.73" arrivalSpeed="0.00">
        <route edges="4i 2o 2i"/>
    </vehicle>
    <vehicle id="carIn122:1" type="default" depart="253.00" departPos="243.67" arrivalPos="446.55" arrivalSpeed="0.00">
        <route edges="4i 3o"/>
    </vehicle>
    <vehicle id="carIn91:1" type="default" depart="255.00" departPos="243.67" arrivalPos="243.67" arrivalSpeed="0.00">
        <route edges="2i 3o 3i"/>
    </vehicle>
    <vehicle id="h418c1:1" type="default" depart="258.00" departPos="225.37" arrivalPos="312.64" arrivalSpeed="0.00">
        <route edges="2o 2i 4o"/>
    </vehicle>
    <vehicle id="h201c1:1" type="default" depart="259.00" departPos="167.20" arrivalPos="264.99" arrivalSpeed="0.00">
        <route edges="3i 4o 4i"/>
    </vehicle>
    <vehicle id="h467c1:1" type="default" depart="262.00" departPos="416.60" arrivalPos="377.23" arrivalSpeed="0.00">
        <route edges="2o 2i 3o"/>
    </vehicle>
    <vehicle id="h411c1:1" type="default" depart="274.00" departPos="49.23" arrivalPos="246.37" arrivalSpeed="0.00">
        <route edges="2i 4o"/>
    </vehicle>
    <vehicle id="carIn135:1" type="default" depart="274.00" departPos="243.67" arrivalPos="101.42" arrivalSpeed="0.00">
        <route edges="1i 4o 4i"/>
    </vehicle>
    <vehicle id="h152c1:1" type="default" depart="277.00" departPos="274.76" arrivalPos="267.60" arrivalSpeed="0.00">
        <route edges="4o 4i 3o"/>
    </vehicle>
    <vehicle id="h222c1:1" type="default" depart="278.00" departPos="82.45" arrivalPos="80.28" arrivalSpeed="0.00">
        <route edges="3i 2o"/>
    </vehicle>
    <vehicle id="h364c1:1" type="default" depart="279.00" departPos="6.73" arrivalPos="379.98" arrivalSpeed="0.00">
        <route edges="2i 4o"/>
    </vehicle>
    <vehicle id="carIn134:1" type="default" depart="279.00" departPos="243.67" arrivalPos="449.00" arrivalSpeed="0.00">
        <route edges="4i 3o"/>
    </vehicle>
    <vehicle id="carIn65:1" type="default" depart="282.00" departPos="0.00" arrivalPos="245.49" arrivalSpeed="0.00">
        <route edges="2o 2i 4o 4i"/>
    </vehicle>
    <vehicle id="h84c1:1" type="default" depart="285.00" departPos="367.46" arrivalPos="263.67" arrivalSpeed="0.00">
        <route edges="4o 4i 3o 3i"/>
    </vehicle>
    <vehicle id="h422c1:1" type="default" depart="285.00" departPos="380.98" arrivalPos="240.04" arrivalSpeed="0.00">
        <route edges="2o 2i 4o"/>
    </vehicle>
    <vehicle id="h187c1:1" type="default" depart="286.00" departPos="84.93" arrivalPos="67.69" arrivalSpeed="0.00">
        <route edges="3i 4o"/>
    </vehicle>
    <vehicle id="carIn58:1" type="default" depart="293.00" departPos="243.67" arrivalPos="451.58" arrivalSpeed="0.00">
        <route edges="4i 2o 2i"/>
    </vehicle>
    <vehicle id="carIn10:1" type="default" depart="294.00" departPos="243.67" arrivalPos="422.31" arrivalSpeed="0.00">
        <route edges="4i"/>
    </vehicle>
    <vehicle id="carIn113:1" type="default" depart="295.00" departPos="243.67" arrivalPos="429.34" arrivalSpeed="0.00">
        <route edges="4i 3o"/>
    </vehicle>
    <vehicle id="h12c1:1" type="default" depart="297.00" departPos="56.07" arrivalPos="202.74" arrivalSpeed="0.00">
        <route edges="4i 3o 3i"/>
    </vehicle>
    <vehicle id="h86c2:1" type="default" depart="299.00" departPos="149.29" arrivalPos="442.46" arrivalSpeed="0.00">
        <route edges="4o 4i 3o"/>
    </vehicle>
    <vehicle id="h85c1:1" type="default" depart="304.00" departPos="157.43" arrivalPos="478.75" arrivalSpeed="0.00">
        <route edges="4o 4i 3o"/>
    </vehicle>
    <vehicle id="h8c1:1" type="default" depart="310.00" departPos="73.04" arrivalPos="291.93" arrivalSpeed="0.00">
        <route edges="4i 2o 2i"/>
    </vehicle>
    <vehicle id="carIn143:1" type="default" depart="314.00" departPos="0.00" arrivalPos="256.31" arrivalSpeed="0.00">
        <route edges="4o"/>
    </vehicle>
    <vehicle id="h57c1:1" type="default" depart="315.00" departPos="275.27" arrivalPos="255.61" arrivalSpeed="0.00">
        <route edges="4i 3o"/>
    </vehicle>
    <vehicle id="carIn106:1" type="default" depart="315.00" departPos="243.67" arrivalPos="346.29" arrivalSpeed="0.00">
        <route edges="3i 4o 4i"/>
    </vehicle>
    <vehicle id="h267c2:1" type="default" depart="316.00" departPos="238.27" arrivalPos="250.85" arrivalSpeed="0.00">
        <route edges="3o 3i 4o 4i"/>
    </vehicle>
    <vehicle id="carIn173:1" type="default" depart="316.00" departPos="243.67" arrivalPos="243.67" arrivalSpeed="0.00">
        <route edges="3i 4o 4i"/>
    </vehicle>
    <vehicle id="carIn33:1" type="default" depart="317.00" departPos="0.00" arrivalPos="383.49" arrivalSpeed="0.00">
        <route edges="4o 4i 2o 2i"/>
    </vehicle>
    <vehicle id="h60c1:1" type="default" depart="320.00" departPos="255.56" arrivalPos="274.51" arrivalSpeed="0.00">
        <route edges="4i 3o"/>
    </vehicle>
    <vehicle id="h53c1:1" type="default" depart="321.00" departPos="60.39" arrivalPos="387.25" arrivalSpeed="0.00">
        <route edges="4i 3o"/>
    </vehicle>
    <vehicle id="carIn174:1" type="default" depart="327.00" departPos="0.00" arrivalPos="480.55" arrivalSpeed="0.00">
        <route edges="4o 4i 2o"/>
    </vehicle>
    <vehicle id="h105c1:1" type="default" depart="328.00" departPos="286.03" arrivalPos="301.02" arrivalSpeed="0.00">
        <route edges="4o 4i 3o"/>
    </vehicle>
    <vehicle id="h77c1:1" type="default" depart="332.00" departPos="147.19" arrivalPos="272.48" arrivalSpeed="0.00">
        <route edges="4i 3o 3i"/>
    </vehicle>
    <vehicle id="carIn30:1" type="default" depart="334.00" departPos="243.67" arrivalPos="311.75" arrivalSpeed="0.00">
        <route edges="1i 4o"/>
    </vehicle>
    <vehicle id="carIn145:1" type="default" depart="334.00" departPos="243.67" arrivalPos="243.67" arrivalSpeed="0.00">
        <route edges="2i 1o 1i"/>
    </vehicle>
    <vehicle id="h230c2:1" type="default" depart="335.00" departPos="84.83" arrivalPos="144.89" arrivalSpeed="0.00">
        <route edges="3i 4o 4i"/>
    </vehicle>
    <vehicle id="carIn86:1" type="default" depart="335.00" departPos="243.67" arrivalPos="394.68" arrivalSpeed="0.00">
        <route edges="1i 2o 2i"/>
    </vehicle>
    <vehicle id="carIn6:1" type="default" depart="337.00" departPos="243.67" arrivalPos="479.17" arrivalSpeed="0.00">
        <route edges="1i 3o"/>
    </vehicle>
    <vehicle id="h245c1:1" type="default" depart="339.00" departPos="392.21" arrivalPos="215.33" arrivalSpeed="0.00">
        <route edges="3o 3i 4o"/>
    </vehicle>
    <vehicle id="h150c1:1" type="default" depart="340.00" departPos="327.14" arrivalPos="334.83" arrivalSpeed="0.00">
        <route edges="4o 4i 2o"/>
    </vehicle>
    <vehicle id="h85c2:1" type="default" depart="347.00" departPos="157.43" arrivalPos="433.79" arrivalSpeed="0.00">
        <route edges="4o 4i 2o"/>
    </vehicle>
    <vehicle id="carIn60:1" type="default" depart="349.00" departPos="243.67" arrivalPos="47.29" arrivalSpeed="0.00">
        <route edges="2i 4o 4i"/>
    </vehicle>
    <vehicle id="carIn199:1" type="default" depart="350.00" departPos="243.67" arrivalPos="117.44" arrivalSpeed="0.00">
        <route edges="4i 2o"/>
    </vehicle>
    <vehicle id="h407c2:1" type="default" depart="351.00" departPos="65.48" arrivalPos="448.92" arrivalSpeed="0.00">
        <route edges="2i"/>
    </vehicle>
    <vehicle id="h48c1:1" type="default" depart="352.00" departPos="239.36" arrivalPos="170.98" arrivalSpeed="0.00">
        <route edges="4i 3o 3i"/>
    </vehicle>
    <vehicle id="h179c1:1" type="default" depart="352.00" departPos="171.63" arrivalPos="391.15" arrivalSpeed="0.00">
        <route edges="3i 4o 4i"/>
    </vehicle>
    <vehicle id="h436c1:1" type="default" depart="353.00" departPos="460.37" arrivalPos="305.14" arrivalSpeed="0.00">
        <route edges="2o 2i 3o 3i"/>
    </vehicle>
    <vehicle id="h300c1:1" type="default" depart="358.00" departPos="348.25" arrivalPos="350.30" arrivalSpeed="0.00">
        <route edges="3o 3i 4o"/>
    </vehicle>
    <vehicle id="h246c1:1" type="default" depart="359.00" departPos="397.33" arrivalPos="59.56" arrivalSpeed="0.00">
        <route edges="3o 3i 4o 4i"/>
    </vehicle>
    <vehicle id="h381c1:1" type="default" depart="359.00" departPos="201.27" arrivalPos="295.14" arrivalSpeed="0.00">
        <route edges="2i 3o 3i"/>
    </vehicle>
    <vehicle id="carIn29:1" type="default" depart="362.00" departPos="0.00" arrivalPos="44.72" arrivalSpeed="0.00">
        <route edges="3o 3i 4o"/>
    </vehicle>
    <vehicle id="carIn68:1" type="default" depart="366.00" departPos="243.67" arrivalPos="127.38" arrivalSpeed="0.00">
        <route edges="4i 3o"/>
    </vehicle>
    <vehicle id="carIn181:1" type="default" depart="366.00" departPos="243.67" arrivalPos="167.79" arrivalSpeed="0.00">
        <route edges="4i 2o"/>
    </vehicle>
    <vehicle id="carIn37:1" type="default" depart="368.00" departPos="0.00" arrivalPos="243.67" arrivalSpeed="0.00">
        <route edges="3o 3i 2o 2i"/>
    </vehicle>
    <vehicle id="h119c1:1" type="default" depart="370.00" departPos="87.92" arrivalPos="334.45" arrivalSpeed="0.00">
        <route edges="4o 4i 2o"/>
    </vehicle>
    <vehicle id="h298c1:1" type="default" depart="371.00" departPos="234.23" arrivalPos="243.67" arrivalSpeed="0.00">
        <route edges="3o 3i 1o 1i"/>
    </vehicle>
    <vehicle id="h273c1:1" type="default" depart="372.00" departPos="439.37" arrivalPos="270.24" arrivalSpeed="0.00">
        <route edges="3o 3i 2o"/>
    </vehicle>
    <vehicle id="h397c1:1" type="default" depart="372.00" departPos="208.66" arrivalPos="243.84" arrivalSpeed="0.00">
        <route edges="2i 3o 3i"/>
    </vehicle>
    <vehicle id="carIn192:1" type="default" depart="372.00" departPos="243.67" arrivalPos="374.57" arrivalSpeed="0.00">
        <route edges="2i 4o 4i"/>
    </vehicle>
    <vehicle id="carIn11:1" type="default" depart="374.00" departPos="0.00" arrivalPos="243.67" arrivalSpeed="0.00">
        <route edges="1o 1i 3o 3i"/>
    </vehicle>
    <vehicle id="h299c1:1" type="default" depart="377.00" departPos="64.21" arrivalPos="355.95" arrivalSpeed="0.00">
        <route edges="3o 3i 2o"/>
    </vehicle>
    <vehicle id="h182c1:1" type="default" depart="379.00" departPos="39.13" arrivalPos="243.67" arrivalSpeed="0.00">
        <route edges="3i 1o 1i"/>
    </vehicle>
    <vehicle id="h245c2:1" type="default" depart="381.00" departPos="392.21" arrivalPos="284.28" arrivalSpeed="0.00">
        <route edges="3o 3i 4o 4i"/>
    </vehicle>
    <vehicle id="carIn163:1" type="default" depart="381.00" departPos="243.67" arrivalPos="93.28" arrivalSpeed="0.00">
        <route edges="4i 3o"/>
    </vehicle>
    <vehicle id="carIn198:1" type="default" depart="381.00" departPos="0.00" arrivalPos="265.08" arrivalSpeed="0.00">
        <route edges="4o 4i 3o"/>
    </vehicle>
    <vehicle id="h440c1:1" type="default" depart="382.00" departPos="17.88" arrivalPos="432.18" arrivalSpeed="0.00">
        <route edges="2o 2i 4o"/>
    </vehicle>
    <vehicle id="carIn121:1" type="default" depart="382.00" departPos="0.00" arrivalPos="273.79" arrivalSpeed="0.00">
        <route edges="2o 2i 3o 3i"/>
    </vehicle>
    <vehicle id="h182c2:1" type="default" depart="383.00" departPos="39.13" arrivalPos="406.19" arrivalSpeed="0.00">
        <route edges="3i 2o"/>
    </vehicle>
    <vehicle id="h132c1:1" type="default" depart="384.00" departPos="311.78" arrivalPos="189.10" arrivalSpeed="0.00">
        <route edges="4o 4i 3o"/>
    </vehicle>
    <vehicle id="h215c1:1" type="default" depart="384.00" departPos="85.99" arrivalPos="454.22" arrivalSpeed="0.00">
        <route edges="3i 2o 2i"/>
    </vehicle>
    <vehicle id="h267c1:1" type="default" depart="384.00" departPos="238.27" arrivalPos="226.33" arrivalSpeed="0.00">
        <route edges="3o 3i 2o 2i"/>
    </vehicle>
    <vehicle id="carIn69:1" type="default" depart="384.00" departPos="0.00" arrivalPos="247.77" arrivalSpeed="0.00">
        <route edges="3o 3i"/>
    </vehicle>
    <vehicle id="h216c1:1" type="default" depart="385.00" departPos="42.18" arrivalPos="59.96" arrivalSpeed="0.00">
        <route edges="3i 4o"/>
    </vehicle>
    <vehicle id="h460c1:1" type="default" depart="385.00" departPos="426.55" arrivalPos="23.17" arrivalSpeed="0.00">
        <route edges="2o 2i 4o 4i"/>
    </vehicle>
    <vehicle id="carIn12:1" type="default" depart="385.00" departPos="243.67" arrivalPos="452.94" arrivalSpeed="0.00">
        <route edges="1i 3o 3i"/>
    </vehicle>
    <vehicle id="carIn67:1" type="default" depart="386.00" departPos="243.67" arrivalPos="14.43" arrivalSpeed="0.00">
        <route edges="4i 2o 2i"/>
    </vehicle>
    <vehicle id="carIn126:1" type="default" depart="386.00" departPos="243.67" arrivalPos="347.73" arrivalSpeed="0.00">
        <route edges="1i 4o"/>
    </vehicle>
    <vehicle id="h166c1:1" type="default" depart="387.00" departPos="292.40" arrivalPos="441.96" arrivalSpeed="0.00">
        <route edges="3i 4o"/>
    </vehicle>
    <vehicle id="carIn196:1" type="default" depart="389.00" departPos="0.00" arrivalPos="28.60" arrivalSpeed="0.00">
        <route edges="1o 1i 4o 4i"/>
    </vehicle>
    <vehicle id="h414c1:1" type="default" depart="390.00" departPos="377.74" arrivalPos="26.33" arrivalSpeed="0.00">
        <route edges="2o 2i 3o 3i"/>
    </vehicle>
    <vehicle id="h494c1:1" type="default" depart="390.00" departPos="11.96" arrivalPos="424.23" arrivalSpeed="0.00">
        <route edges="1o 1i 4o"/>
    </vehicle>
    <vehicle id="carIn54:1" type="default" depart="393.00" departPos="243.67" arrivalPos="302.20" arrivalSpeed="0.00">
        <route edges="2i 3o"/>
    </vehicle>
    <vehicle id="carIn105:1" type="default" depart="393.00" departPos="243.67" arrivalPos="201.22" arrivalSpeed="0.00">
        <route edges="2i 4o 4i"/>
    </vehicle>
    <vehicle id="carIn56:1" type="default" depart="394.00" departPos="0.00" arrivalPos="410.78" arrivalSpeed="0.00">
        <route edges="4o 4i 3o"/>
    </vehicle>
    <vehicle id="h315c1:1" type="default" depart="395.00" departPos="399.97" arrivalPos="312.13" arrivalSpeed="0.00">
        <route edges="3o 3i 2o 2i"/>
    </vehicle>
    <vehicle id="h409c1:1" type="default" depart="395.00" departPos="473.16" arrivalPos="373.73" arrivalSpeed="0.00">
        <route edges="2i 2o"/>
    </vehicle>
    <vehicle id="h455c1:1" type="default" depart="395.00" departPos="295.12" arrivalPos="204.68" arrivalSpeed="0.00">
        <route edges="2o 2i 3o"/>
    </vehicle>
    <vehicle id="carIn136:1" type="default" depart="395.00" departPos="243.67" arrivalPos="239.80" arrivalSpeed="0.00">
        <route edges="1i 3o"/>
    </vehicle>
    <vehicle id="carIn170:1" type="default" depart="395.00" departPos="243.67" arrivalPos="157.13" arrivalSpeed="0.00">
        <route edges="3i 4o"/>
    </vehicle>
    <vehicle id="h26c1:1" type="default" depart="396.00" departPos="258.06" arrivalPos="215.91" arrivalSpeed="0.00">
        <route edges="4i 3o"/>
    </vehicle>
    <vehicle id="h256c1:1" type="default" depart="397.00" departPos="149.36" arrivalPos="83.47" arrivalSpeed="0.00">
        <route edges="3o 3i 4o 4i"/>
    </vehicle>
    <vehicle id="h402c1:1" type="default" depart="397.00" departPos="143.74" arrivalPos="200.84" arrivalSpeed="0.00">
        <route edges="2i 4o 4i"/>
    </vehicle>
    <vehicle id="carIn78:1" type="default" depart="398.00" departPos="0.00" arrivalPos="439.36" arrivalSpeed="0.00">
        <route edges="1o 1i 3o"/>
    </vehicle>
    <vehicle id="h202c1:1" type="default" depart="399.00" departPos="132.10" arrivalPos="0.00" arrivalSpeed="0.00">
        <route edges="3i 3o"/>
    </vehicle>
    <vehicle id="h70c1:1" type="default" depart="400.00" departPos="92.76" arrivalPos="481.72" arrivalSpeed="0.00">
        <route edges="4i 3o 3i"/>
    </vehicle>
    <vehicle id="h162c1:1" type="default" depart="402.00" departPos="218.09" arrivalPos="144.92" arrivalSpeed="0.00">
        <route edges="3i 4o 4i"/>
    </vehicle>
    <vehicle id="h429c1:1" type="default" depart="402.00" departPos="9.57" arrivalPos="360.96" arrivalSpeed="0.00">
        <route edges="2o 2i 3o"/>
    </vehicle>
    <vehicle id="carIn24:1" type="default" depart="402.00" departPos="243.67" arrivalPos="386.32" arrivalSpeed="0.00">
        <route edges="2i 4o 4i"/>
    </vehicle>
    <vehicle id="carIn200:1" type="default" depart="402.00" departPos="243.67" arrivalPos="243.67" arrivalSpeed="0.00">
        <route edges="1i 4o 4i"/>
    </vehicle>
    <vehicle id="h452c1:1" type="default" depart="404.00" departPos="412.27" arrivalPos="341.00" arrivalSpeed="0.00">
        <route edges="2o 2i 4o 4i"/>
    </vehicle>
    <vehicle id="carIn188:1" type="default" depart="404.00" departPos="243.67" arrivalPos="122.92" arrivalSpeed="0.00">
        <route edges="2i 3o"/>
    </vehicle>
    <vehicle id="carIn150:1" type="default" depart="407.00" departPos="0.00" arrivalPos="131.98" arrivalSpeed="0.00">
        <route edges="2o 2i 4o"/>
    </vehicle>
    <vehicle id="carIn139:1" type="default" depart="408.00" departPos="243.67" arrivalPos="9.20" arrivalSpeed="0.00">
        <route edges="2i 3o 3i"/>
    </vehicle>
    <vehicle id="h293c1:1" type="default" depart="412.00" departPos="450.13" arrivalPos="158.49" arrivalSpeed="0.00">
        <route edges="3o 3i 2o"/>
    </vehicle>
    <vehicle id="h69c1:1" type="default" depart="415.00" departPos="104.47" arrivalPos="228.94" arrivalSpeed="0.00">
        <route edges="4i 3o 3i"/>
    </vehicle>
    <vehicle id="carIn94:1" type="default" depart="415.00" departPos="243.67" arrivalPos="55.06" arrivalSpeed="0.00">
        <route edges="4i 3o 3i"/>
    </vehicle>
    <vehicle id="carIn132:1" type="default" depart="415.00" departPos="0.00" arrivalPos="74.77" arrivalSpeed="0.00">
        <route edges="2o 2i 4o 4i"/>
    </vehicle>
    <vehicle id="h163c1:1" type="default" depart="416.00" departPos="137.37" arrivalPos="355.00" arrivalSpeed="0.00">
        <route edges="3i 4o"/>
    </vehicle>
    <vehicle id="carIn4:1" type="default" depart="416.00" departPos="243.67" arrivalPos="302.99" arrivalSpeed="0.00">
        <route edges="4i 3o 3i"/>
    </vehicle>
    <vehicle id="carIn98:1" type="default" depart="416.00" departPos="0.00" arrivalPos="400.40" arrivalSpeed="0.00">
        <route edges="2o"/>
    </vehicle>
    <vehicle id="h190c1:1" type="default" depart="417.00" departPos="270.33" arrivalPos="413.94" arrivalSpeed="0.00">
        <route edges="3i 4o"/>
    </vehicle>
    <vehicle id="carIn83:1" type="default" depart="417.00" departPos="243.67" arrivalPos="60.75" arrivalSpeed="0.00">
        <route edges="2i 4o"/>
    </vehicle>
    <vehicle id="h271c1:1" type="default" depart="418.00" departPos="293.25" arrivalPos="318.84" arrivalSpeed="0.00">
        <route edges="3o 3i 4o 4i"/>
    </vehicle>
    <vehicle id="carIn43:1" type="default" depart="419.00" departPos="243.67" arrivalPos="340.79" arrivalSpeed="0.00">
        <route edges="2i 4o 4i"/>
    </vehicle>
    <vehicle id="h147c1:1" type="default" depart="420.00" departPos="375.53" arrivalPos="97.34" arrivalSpeed="0.00">
        <route edges="4o 4i 3o 3i"/>
    </vehicle>
    <vehicle id="h4c1:1" type="default" depart="423.00" departPos="169.26" arrivalPos="274.01" arrivalSpeed="0.00">
        <route edges="4i 3o 3i"/>
    </vehicle>
    <vehicle id="h29c1:1" type="default" depart="423.00" departPos="125.52" arrivalPos="349.59" arrivalSpeed="0.00">
        <route edges="4i 2o 2i"/>
    </vehicle>
    <vehicle id="h167c1:1" type="default" depart="423.00" departPos="196.94" arrivalPos="354.30" arrivalSpeed="0.00">
        <route edges="3i 4o"/>
    </vehicle>
    <vehicle id="h485c1:1" type="default" depart="423.00" departPos="260.79" arrivalPos="32.63" arrivalSpeed="0.00">
        <route edges="2o 2i 4o 4i"/>
    </vehicle>
    <vehicle id="h319c1:1" type="default" depart="425.00" departPos="246.35" arrivalPos="230.37" arrivalSpeed="0.00">
        <route edges="3o 3i 4o"/>
    </vehicle>
    <vehicle id="carIn119:1" type="default" depart="426.00" departPos="243.67" arrivalPos="372.09" arrivalSpeed="0.00">
        <route edges="4i 2o 2i"/>
    </vehicle>
    <vehicle id="carIn115:1" type="default" depart="428.00" departPos="0.00" arrivalPos="415.18" arrivalSpeed="0.00">
        <route edges="4o 4i 2o"/>
    </vehicle>
    <vehicle id="carIn44:1" type="default" depart="429.00" departPos="243.67" arrivalPos="294.97" arrivalSpeed="0.00">
        <route edges="1i 4o"/>
    </vehicle>
    <vehicle id="carIn80:1" type="default" depart="430.00" departPos="243.67" arrivalPos="310.48" arrivalSpeed="0.00">
        <route edges="2i"/>
    </vehicle>
    <vehicle id="carIn45:1" type="default" depart="431.00" departPos="0.00" arrivalPos="476.48" arrivalSpeed="0.00">
        <route edges="3o 3i 2o 2i"/>
    </vehicle>
    <vehicle id="h268c2:1" type="default" depart="433.00" departPos="282.08" arrivalPos="208.37" arrivalSpeed="0.00">
        <route edges="3o 3i 4o 4i"/>
    </vehicle>
    <vehicle id="carIn141:1" type="default" depart="435.00" departPos="243.67" arrivalPos="207.66" arrivalSpeed="0.00">
        <route edges="3i 4o 4i"/>
    </vehicle>
    <vehicle id="h229c1:1" type="default" depart="436.00" departPos="46.21" arrivalPos="439.24" arrivalSpeed="0.00">
        <route edges="3i"/>
    </vehicle>
    <vehicle id="h274c1:1" type="default" depart="436.00" departPos="303.13" arrivalPos="86.12" arrivalSpeed="0.00">
        <route edges="3o 3i 2o 2i"/>
    </vehicle>
    <vehicle id="h370c1:1" type="default" depart="436.00" departPos="93.11" arrivalPos="447.03" arrivalSpeed="0.00">
        <route edges="2i 4o 4i"/>
    </vehicle>
    <vehicle id="carIn165:1" type="default" depart="436.00" departPos="243.67" arrivalPos="116.50" arrivalSpeed="0.00">
        <route edges="4i 3o"/>
    </vehicle>
    <vehicle id="carIn178:1" type="default" depart="438.00" departPos="243.67" arrivalPos="121.03" arrivalSpeed="0.00">
        <route edges="2i 4o 4i"/>
    </vehicle>
    <vehicle id="carIn72:1" type="default" depart="439.00" departPos="243.67" arrivalPos="254.80" arrivalSpeed="0.00">
        <route edges="4i"/>
    </vehicle>
    <vehicle id="h451c1:1" type="default" depart="440.00" departPos="160.89" arrivalPos="11.21" arrivalSpeed="0.00">
        <route edges="2o 2i 3o 3i"/>
    </vehicle>
    <vehicle id="carIn64:1" type="default" depart="440.00" departPos="0.00" arrivalPos="262.93" arrivalSpeed="0.00">
        <route edges="2o 2i 3o 3i"/>
    </vehicle>
    <vehicle id="h275c1:1" type="default" depart="441.00" departPos="248.37" arrivalPos="309.81" arrivalSpeed="0.00">
        <route edges="3o 3i 4o"/>
    </vehicle>
    <vehicle id="h288c1:1" type="default" depart="442.00" departPos="323.02" arrivalPos="297.56" arrivalSpeed="0.00">
        <route edges="3o 3i 2o 2i"/>
    </vehicle>
    <vehicle id="h450c1:1" type="default" depart="442.00" departPos="145.26" arrivalPos="334.19" arrivalSpeed="0.00">
        <route edges="2o 2i 3o"/>
    </vehicle>
    <vehicle id="carIn53:1" type="default" depart="442.00" departPos="0.00" arrivalPos="27.29" arrivalSpeed="0.00">
        <route edges="3o 3i 2o 2i"/>
    </vehicle>
    <vehicle id="h206c1:1" type="default" depart="443.00" departPos="247.49" arrivalPos="68.15" arrivalSpeed="0.00">
        <route edges="3i 4o 4i"/>
    </vehicle>
    <vehicle id="carIn13:1" type="default" depart="443.00" departPos="243.67" arrivalPos="409.68" arrivalSpeed="0.00">
        <route edges="1i 2o 2i"/>
    </vehicle>
    <vehicle id="carIn34:1" type="default" depart="443.00" departPos="0.00" arrivalPos="231.33" arrivalSpeed="0.00">
        <route edges="4o"/>
    </vehicle>
    <vehicle id="carIn131:1" type="default" depart="443.00" departPos="0.00" arrivalPos="476.05" arrivalSpeed="0.00">
        <route edges="3o 3i 2o"/>
    </vehicle>
    <vehicle id="carIn175:1" type="default" depart="443.00" departPos="243.67" arrivalPos="80.27" arrivalSpeed="0.00">
        <route edges="1i 3o 3i"/>
    </vehicle>
    <vehicle id="carIn47:1" type="default" depart="444.00" departPos="0.00" arrivalPos="68.44" arrivalSpeed="0.00">
        <route edges="2o 2i 3o 3i"/>
    </vehicle>
    <vehicle id="carIn36:1" type="default" depart="445.00" departPos="243.67" arrivalPos="344.78" arrivalSpeed="0.00">
        <route edges="3i 2o 2i"/>
    </vehicle>
    <vehicle id="carIn153:1" type="default" depart="445.00" departPos="243.67" arrivalPos="35.94" arrivalSpeed="0.00">
        <route edges="4i 3o 3i"/>
    </vehicle>
    <vehicle id="h304c1:1" type="default" depart="446.00" departPos="316.37" arrivalPos="249.01" arrivalSpeed="0.00">
        <route edges="3o 3i 4o 4i"/>
    </vehicle>
    <vehicle id="h407c1:1" type="default" depart="446.00" departPos="65.48" arrivalPos="386.79" arrivalSpeed="0.00">
        <route edges="2i 4o 4i"/>
    </vehicle>
    <vehicle id="carIn90:1" type="default" depart="448.00" departPos="0.00" arrivalPos="386.32" arrivalSpeed="0.00">
        <route edges="3o 3i 2o"/>
    </vehicle>
    <vehicle id="h339c1:1" type="default" depart="449.00" departPos="140.38" arrivalPos="388.41" arrivalSpeed="0.00">
        <route edges="2i 3o 3i"/>
    </vehicle>