<?xml version="1.0" encoding="UTF-8"?>

<!-- generated on 03/23/18 20:43:05 by SUMO activitygen Version 0.31.0
<?xml version="1.0" encoding="UTF-8"?>

<configuration xmlns:xsi="http://www.w3.org/2001/XMLSchema-instance" xsi:noNamespaceSchemaLocation="http://sumo.dlr.de/xsd/activitygenConfiguration.xsd">

    <input>
        <net-file value="cross.net.xml"/>
        <stat-file value="hello.stat.xml"/>
    </input>

    <output>
        <output-file value="cross5.trips.rou.xml"/>
    </output>

    <random_number>
        <random value="true"/>
    </random_number>

</configuration>
-->

<routes xmlns:xsi="http://www.w3.org/2001/XMLSchema-instance" xsi:noNamespaceSchemaLocation="http://sumo.dlr.de/xsd/routes_file.xsd">
    <vType id="default" vClass="passenger" color="red"/>
    <vType id="random" vClass="passenger" color="blue"/>
    <vType id="bus" vClass="bus" color="green"/>

    <trip id="h276c1:1" type="default" depart="129" departPos="409.53" arrivalPos="466.80" arrivalSpeed="0.00" from="3o" to="2o"/>
    <trip id="carIn187:1" type="default" depart="130" departPos="243.67" arrivalPos="42.34" arrivalSpeed="0.00" from="2i" to="3i"/>
    <trip id="h52c1:1" type="default" depart="132" departPos="20.94" arrivalPos="231.02" arrivalSpeed="0.00" from="4i" to="3o"/>
    <trip id="h71c1:1" type="default" depart="144" departPos="69.57" arrivalPos="121.72" arrivalSpeed="0.00" from="4i" to="3i"/>
    <trip id="h160c1:1" type="default" depart="145" departPos="183.77" arrivalPos="338.32" arrivalSpeed="0.00" from="4o" to="3o"/>
    <trip id="h266c1:1" type="default" depart="145" departPos="236.46" arrivalPos="306.33" arrivalSpeed="0.00" from="3o" to="4o"/>
    <trip id="h469c1:1" type="default" depart="157" departPos="435.48" arrivalPos="195.91" arrivalSpeed="0.00" from="2o" to="4i"/>
    <trip id="h37c1:1" type="default" depart="162" departPos="162.92" arrivalPos="482.43" arrivalSpeed="0.00" from="4i" to="3o"/>
    <trip id="h366c1:1" type="default" depart="170" departPos="8.91" arrivalPos="297.48" arrivalSpeed="0.00" from="2i" to="3o"/>
    <trip id="carIn117:1" type="default" depart="175" departPos="243.67" arrivalPos="372.96" arrivalSpeed="0.00" from="2i" to="4i"/>
    <trip id="h230c1:1" type="default" depart="176" departPos="84.83" arrivalPos="135.27" arrivalSpeed="0.00" from="3i" to="4o"/>
    <trip id="h140c1:1" type="default" depart="194" departPos="343.49" arrivalPos="34.38" arrivalSpeed="0.00" from="4o" to="2i"/>
    <trip id="h111c1:1" type="default" depart="196" departPos="368.80" arrivalPos="420.16" arrivalSpeed="0.00" from="4o" to="3i"/>
    <trip id="h301c1:1" type="default" depart="211" departPos="466.17" arrivalPos="279.15" arrivalSpeed="0.00" from="3o" to="4i"/>
    <trip id="h14c1:1" type="default" depart="214" departPos="168.87" arrivalPos="47.22" arrivalSpeed="0.00" from="4i" to="3i"/>
    <trip id="h258c1:1" type="default" depart="215" departPos="49.36" arrivalPos="190.13" arrivalSpeed="0.00" from="3o" to="4i"/>
    <trip id="h320c1:1" type="default" depart="222" departPos="349.11" arrivalPos="448.90" arrivalSpeed="0.00" from="3o" to="4i"/>
    <trip id="carIn42:1" type="default" depart="241" departPos="243.67" arrivalPos="483.00" arrivalSpeed="0.00" from="3i" to="4o"/>
    <trip id="carIn182:1" type="default" depart="242" departPos="243.67" arrivalPos="224.51" arrivalSpeed="0.00" from="2i" to="4i"/>
    <trip id="h114c1:1" type="default" depart="243" departPos="346.08" arrivalPos="16.23" arrivalSpeed="0.00" from="4o" to="3i"/>
    <trip id="h220c1:1" type="default" depart="248" departPos="232.64" arrivalPos="306.29" arrivalSpeed="0.00" from="3i" to="2o"/>
    <trip id="h40c1:1" type="default" depart="250" departPos="238.93" arrivalPos="404.63" arrivalSpeed="0.00" from="4i" to="3o"/>
    <trip id="h314c1:1" type="default" depart="250" departPos="218.80" arrivalPos="262.91" arrivalSpeed="0.00" from="3o" to="4o"/>
    <trip id="h71c2:1" type="default" depart="252" departPos="69.57" arrivalPos="183.73" arrivalSpeed="0.00" from="4i" to="2i"/>
    <trip id="carIn122:1" type="default" depart="253" departPos="243.67" arrivalPos="446.55" arrivalSpeed="0.00" from="4i" to="3o"/>
    <trip id="carIn91:1" type="default" depart="255" departPos="243.67" arrivalPos="243.67" arrivalSpeed="0.00" from="2i" to="3i"/>
    <trip id="h418c1:1" type="default" depart="258" departPos="225.37" arrivalPos="312.64" arrivalSpeed="0.00" from="2o" to="4o"/>
    <trip id="h201c1:1" type="default" depart="259" departPos="167.20" arrivalPos="264.99" arrivalSpeed="0.00" from="3i" to="4i"/>
    <trip id="h467c1:1" type="default" depart="262" departPos="416.60" arrivalPos="377.23" arrivalSpeed="0.00" from="2o" to="3o"/>
    <trip id="h411c1:1" type="default" depart="274" departPos="49.23" arrivalPos="246.37" arrivalSpeed="0.00" from="2i" to="4o"/>
    <trip id="carIn135:1" type="default" depart="274" departPos="243.67" arrivalPos="101.42" arrivalSpeed="0.00" from="1i" to="4i"/>
    <trip id="h152c1:1" type="default" depart="277" departPos="274.76" arrivalPos="267.60" arrivalSpeed="0.00" from="4o" to="3o"/>
    <trip id="h222c1:1" type="default" depart="278" departPos="82.45" arrivalPos="80.28" arrivalSpeed="0.00" from="3i" to="2o"/>
    <trip id="h364c1:1" type="default" depart="279" departPos="6.73" arrivalPos="379.98" arrivalSpeed="0.00" from="2i" to="4o"/>
    <trip id="carIn134:1" type="default" depart="279" departPos="243.67" arrivalPos="449.00" arrivalSpeed="0.00" from="4i" to="3o"/>
    <trip id="carIn65:1" type="default" depart="282" departPos="0.00" arrivalPos="245.49" arrivalSpeed="0.00" from="2o" to="4i"/>
    <trip id="h84c1:1" type="default" depart="285" departPos="367.46" arrivalPos="263.67" arrivalSpeed="0.00" from="4o" to="3i"/>
    <trip id="h422c1:1" type="default" depart="285" departPos="380.98" arrivalPos="240.04" arrivalSpeed="0.00" from="2o" to="4o"/>
    <trip id="h187c1:1" type="default" depart="286" departPos="84.93" arrivalPos="67.69" arrivalSpeed="0.00" from="3i" to="4o"/>
    <trip id="carIn58:1" type="default" depart="293" departPos="243.67" arrivalPos="451.58" arrivalSpeed="0.00" from="4i" to="2i"/>
    <trip id="carIn10:1" type="default" depart="294" departPos="243.67" arrivalPos="422.31" arrivalSpeed="0.00" from="4i" to="4i"/>
    <trip id="carIn113:1" type="default" depart="295" departPos="243.67" arrivalPos="429.34" arrivalSpeed="0.00" from="4i" to="3o"/>
    <trip id="h12c1:1" type="default" depart="297" departPos="56.07" arrivalPos="202.74" arrivalSpeed="0.00" from="4i" to="3i"/>
    <trip id="h86c2:1" type="default" depart="299" departPos="149.29" arrivalPos="442.46" arrivalSpeed="0.00" from="4o" to="3o"/>
    <trip id="h85c1:1" type="default" depart="304" departPos="157.43" arrivalPos="478.75" arrivalSpeed="0.00" from="4o" to="3o"/>
    <trip id="h8c1:1" type="default" depart="310" departPos="73.04" arrivalPos="291.93" arrivalSpeed="0.00" from="4i" to="2i"/>
    <trip id="carIn143:1" type="default" depart="314" departPos="0.00" arrivalPos="256.31" arrivalSpeed="0.00" from="4o" to="4o"/>
    <trip id="h57c1:1" type="default" depart="315" departPos="275.27" arrivalPos="255.61" arrivalSpeed="0.00" from="4i" to="3o"/>
    <trip id="carIn106:1" type="default" depart="315" departPos="243.67" arrivalPos="346.29" arrivalSpeed="0.00" from="3i" to="4i"/>
    <trip id="h267c2:1" type="default" depart="316" departPos="238.27" arrivalPos="250.85" arrivalSpeed="0.00" from="3o" to="4i"/>
    <trip id="carIn173:1" type="default" depart="316" departPos="243.67" arrivalPos="243.67" arrivalSpeed="0.00" from="3i" to="4i"/>
    <trip id="carIn33:1" type="default" depart="317" departPos="0.00" arrivalPos="383.49" arrivalSpeed="0.00" from="4o" to="2i"/>
    <trip id="h60c1:1" type="default" depart="320" departPos="255.56" arrivalPos="274.51" arrivalSpeed="0.00" from="4i" to="3o"/>
    <trip id="h53c1:1" type="default" depart="321" departPos="60.39" arrivalPos="387.25" arrivalSpeed="0.00" from="4i" to="3o"/>
    <trip id="carIn174:1" type="default" depart="327" departPos="0.00" arrivalPos="480.55" arrivalSpeed="0.00" from="4o" to="2o"/>
    <trip id="h105c1:1" type="default" depart="328" departPos="286.03" arrivalPos="301.02" arrivalSpeed="0.00" from="4o" to="3o"/>
    <trip id="h77c1:1" type="default" depart="332" departPos="147.19" arrivalPos="272.48" arrivalSpeed="0.00" from="4i" to="3i"/>
    <trip id="carIn30:1" type="default" depart="334" departPos="243.67" arrivalPos="311.75" arrivalSpeed="0.00" from="1i" to="4o"/>
    <trip id="carIn145:1" type="default" depart="334" departPos="243.67" arrivalPos="243.67" arrivalSpeed="0.00" from="2i" to="1i"/>
    <trip id="h230c2:1" type="default" depart="335" departPos="84.83" arrivalPos="144.89" arrivalSpeed="0.00" from="3i" to="4i"/>
    <trip id="carIn86:1" type="default" depart="335" departPos="243.67" arrivalPos="394.68" arrivalSpeed="0.00" from="1i" to="2i"/>
    <trip id="carIn6:1" type="default" depart="337" departPos="243.67" arrivalPos="479.17" arrivalSpeed="0.00" from="1i" to="3o"/>
    <trip id="h245c1:1" type="default" depart="339" departPos="392.21" arrivalPos="215.33" arrivalSpeed="0.00" from="3o" to="4o"/>
    <trip id="h150c1:1" type="default" depart="340" departPos="327.14" arrivalPos="334.83" arrivalSpeed="0.00" from="4o" to="2o"/>
    <trip id="h85c2:1" type="default" depart="347" departPos="157.43" arrivalPos="433.79" arrivalSpeed="0.00" from="4o" to="2o"/>
    <trip id="carIn60:1" type="default" depart="349" departPos="243.67" arrivalPos="47.29" arrivalSpeed="0.00" from="2i" to="4i"/>
    <trip id="carIn199:1" type="default" depart="350" departPos="243.67" arrivalPos="117.44" arrivalSpeed="0.00" from="4i" to="2o"/>
    <trip id="h407c2:1" type="default" depart="351" departPos="65.48" arrivalPos="448.92" arrivalSpeed="0.00" from="2i" to="2i"/>
    <trip id="h48c1:1" type="default" depart="352" departPos="239.36" arrivalPos="170.98" arrivalSpeed="0.00" from="4i" to="3i"/>
    <trip id="h179c1:1" type="default" depart="352" departPos="171.63" arrivalPos="391.15" arrivalSpeed="0.00" from="3i" to="4i"/>
    <trip id="h436c1:1" type="default" depart="353" departPos="460.37" arrivalPos="305.14" arrivalSpeed="0.00" from="2o" to="3i"/>
    <trip id="h300c1:1" type="default" depart="358" departPos="348.25" arrivalPos="350.30" arrivalSpeed="0.00" from="3o" to="4o"/>
    <trip id="h246c1:1" type="default" depart="359" departPos="397.33" arrivalPos="59.56" arrivalSpeed="0.00" from="3o" to="4i"/>
    <trip id="h381c1:1" type="default" depart="359" departPos="201.27" arrivalPos="295.14" arrivalSpeed="0.00" from="2i" to="3i"/>
    <trip id="carIn29:1" type="default" depart="362" departPos="0.00" arrivalPos="44.72" arrivalSpeed="0.00" from="3o" to="4o"/>
    <trip id="carIn68:1" type="default" depart="366" departPos="243.67" arrivalPos="127.38" arrivalSpeed="0.00" from="4i" to="3o"/>
    <trip id="carIn181:1" type="default" depart="366" departPos="243.67" arrivalPos="167.79" arrivalSpeed="0.00" from="4i" to="2o"/>
    <trip id="carIn37:1" type="default" depart="368" departPos="0.00" arrivalPos="243.67" arrivalSpeed="0.00" from="3o" to="2i"/>
    <trip id="h119c1:1" type="default" depart="370" departPos="87.92" arrivalPos="334.45" arrivalSpeed="0.00" from="4o" to="2o"/>
    <trip id="h298c1:1" type="default" depart="371" departPos="234.23" arrivalPos="243.67" arrivalSpeed="0.00" from="3o" to="1i"/>
    <trip id="h273c1:1" type="default" depart="372" departPos="439.37" arrivalPos="270.24" arrivalSpeed="0.00" from="3o" to="2o"/>
    <trip id="h397c1:1" type="default" depart="372" departPos="208.66" arrivalPos="243.84" arrivalSpeed="0.00" from="2i" to="3i"/>
    <trip id="carIn192:1" type="default" depart="372" departPos="243.67" arrivalPos="374.57" arrivalSpeed="0.00" from="2i" to="4i"/>
    <trip id="carIn11:1" type="default" depart="374" departPos="0.00" arrivalPos="243.67" arrivalSpeed="0.00" from="1o" to="3i"/>
    <trip id="h299c1:1" type="default" depart="377" departPos="64.21" arrivalPos="355.95" arrivalSpeed="0.00" from="3o" to="2o"/>
    <trip id="h182c1:1" type="default" depart="379" departPos="39.13" arrivalPos="243.67" arrivalSpeed="0.00" from="3i" to="1i"/>
    <trip id="h245c2:1" type="default" depart="381" departPos="392.21" arrivalPos="284.28" arrivalSpeed="0.00" from="3o" to="4i"/>
    <trip id="carIn163:1" type="default" depart="381" departPos="243.67" arrivalPos="93.28" arrivalSpeed="0.00" from="4i" to="3o"/>
    <trip id="carIn198:1" type="default" depart="381" departPos="0.00" arrivalPos="265.08" arrivalSpeed="0.00" from="4o" to="3o"/>
    <trip id="h440c1:1" type="default" depart="382" departPos="17.88" arrivalPos="432.18" arrivalSpeed="0.00" from="2o" to="4o"/>
    <trip id="carIn121:1" type="default" depart="382" departPos="0.00" arrivalPos="273.79" arrivalSpeed="0.00" from="2o" to="3i"/>
    <trip id="h182c2:1" type="default" depart="383" departPos="39.13" arrivalPos="406.19" arrivalSpeed="0.00" from="3i" to="2o"/>
    <trip id="h132c1:1" type="default" depart="384" departPos="311.78" arrivalPos="189.10" arrivalSpeed="0.00" from="4o" to="3o"/>
    <trip id="h215c1:1" type="default" depart="384" departPos="85.99" arrivalPos="454.22" arrivalSpeed="0.00" from="3i" to="2i"/>
    <trip id="h267c1:1" type="default" depart="384" departPos="238.27" arrivalPos="226.33" arrivalSpeed="0.00" from="3o" to="2i"/>
    <trip id="carIn69:1" type="default" depart="384" departPos="0.00" arrivalPos="247.77" arrivalSpeed="0.00" from="3o" to="3i"/>
    <trip id="h216c1:1" type="default" depart="385" departPos="42.18" arrivalPos="59.96" arrivalSpeed="0.00" from="3i" to="4o"/>
    <trip id="h460c1:1" type="default" depart="385" departPos="426.55" arrivalPos="23.17" arrivalSpeed="0.00" from="2o" to="4i"/>
    <trip id="carIn12:1" type="default" depart="385" departPos="243.67" arrivalPos="452.94" arrivalSpeed="0.00" from="1i" to="3i"/>
    <trip id="carIn67:1" type="default" depart="386" departPos="243.67" arrivalPos="14.43" arrivalSpeed="0.00" from="4i" to="2i"/>
    <trip id="carIn126:1" type="default" depart="386" departPos="243.67" arrivalPos="347.73" arrivalSpeed="0.00" from="1i" to="4o"/>
    <trip id="h166c1:1" type="default" depart="387" departPos="292.40" arrivalPos="441.96" arrivalSpeed="0.00" from="3i" to="4o"/>
    <trip id="carIn196:1" type="default" depart="389" departPos="0.00" arrivalPos="28.60" arrivalSpeed="0.00" from="1o" to="4i"/>
    <trip id="h414c1:1" type="default" depart="390" departPos="377.74" arrivalPos="26.33" arrivalSpeed="0.00" from="2o" to="3i"/>
    <trip id="h494c1:1" type="default" depart="390" departPos="11.96" arrivalPos="424.23" arrivalSpeed="0.00" from="1o" to="4o"/>
    <trip id="carIn54:1" type="default" depart="393" departPos="243.67" arrivalPos="302.20" arrivalSpeed="0.00" from="2i" to="3o"/>
    <trip id="carIn105:1" type="default" depart="393" departPos="243.67" arrivalPos="201.22" arrivalSpeed="0.00" from="2i" to="4i"/>
    <trip id="carIn56:1" type="default" depart="394" departPos="0.00" arrivalPos="410.78" arrivalSpeed="0.00" from="4o" to="3o"/>
    <trip id="h315c1:1" type="default" depart="395" departPos="399.97" arrivalPos="312.13" arrivalSpeed="0.00" from="3o" to="2i"/>
    <trip id="h409c1:1" type="default" depart="395" departPos="473.16" arrivalPos="373.73" arrivalSpeed="0.00" from="2i" to="2o"/>
    <trip id="h455c1:1" type="default" depart="395" departPos="295.12" arrivalPos="204.68" arrivalSpeed="0.00" from="2o" to="3o"/>
    <trip id="carIn136:1" type="default" depart="395" departPos="243.67" arrivalPos="239.80" arrivalSpeed="0.00" from="1i" to="3o"/>
    <trip id="carIn170:1" type="default" depart="395" departPos="243.67" arrivalPos="157.13" arrivalSpeed="0.00" from="3i" to="4o"/>
    <trip id="h26c1:1" type="default" depart="396" departPos="258.06" arrivalPos="215.91" arrivalSpeed="0.00" from="4i" to="3o"/>
    <trip id="h256c1:1" type="default" depart="397" departPos="149.36" arrivalPos="83.47" arrivalSpeed="0.00" from="3o" to="4i"/>
    <trip id="h402c1:1" type="default" depart="397" departPos="143.74" arrivalPos="200.84" arrivalSpeed="0.00" from="2i" to="4i"/>
    <trip id="carIn78:1" type="default" depart="398" departPos="0.00" arrivalPos="439.36" arrivalSpeed="0.00" from="1o" to="3o"/>
    <trip id="h202c1:1" type="default" depart="399" departPos="132.10" arrivalPos="0.00" arrivalSpeed="0.00" from="3i" to="3o"/>
    <trip id="h70c1:1" type="default" depart="400" departPos="92.76" arrivalPos="481.72" arrivalSpeed="0.00" from="4i" to="3i"/>
    <trip id="h162c1:1" type="default" depart="402" departPos="218.09" arrivalPos="144.92" arrivalSpeed="0.00" from="3i" to="4i"/>
    <trip id="h429c1:1" type="default" depart="402" departPos="9.57" arrivalPos="360.96" arrivalSpeed="0.00" from="2o" to="3o"/>
    <trip id="carIn24:1" type="default" depart="402" departPos="243.67" arrivalPos="386.32" arrivalSpeed="0.00" from="2i" to="4i"/>
    <trip id="carIn200:1" type="default" depart="402" departPos="243.67" arrivalPos="243.67" arrivalSpeed="0.00" from="1i" to="4i"/>
    <trip id="h452c1:1" type="default" depart="404" departPos="412.27" arrivalPos="341.00" arrivalSpeed="0.00" from="2o" to="4i"/>
    <trip id="carIn188:1" type="default" depart="404" departPos="243.67" arrivalPos="122.92" arrivalSpeed="0.00" from="2i" to="3o"/>
    <trip id="carIn150:1" type="default" depart="407" departPos="0.00" arrivalPos="131.98" arrivalSpeed="0.00" from="2o" to="4o"/>
    <trip id="carIn139:1" type="default" depart="408" departPos="243.67" arrivalPos="9.20" arrivalSpeed="0.00" from="2i" to="3i"/>
    <trip id="h293c1:1" type="default" depart="412" departPos="450.13" arrivalPos="158.49" arrivalSpeed="0.00" from="3o" to="2o"/>
    <trip id="h69c1:1" type="default" depart="415" departPos="104.47" arrivalPos="228.94" arrivalSpeed="0.00" from="4i" to="3i"/>
    <trip id="carIn94:1" type="default" depart="415" departPos="243.67" arrivalPos="55.06" arrivalSpeed="0.00" from="4i" to="3i"/>
    <trip id="carIn132:1" type="default" depart="415" departPos="0.00" arrivalPos="74.77" arrivalSpeed="0.00" from="2o" to="4i"/>
    <trip id="h163c1:1" type="default" depart="416" departPos="137.37" arrivalPos="355.00" arrivalSpeed="0.00" from="3i" to="4o"/>
    <trip id="carIn4:1" type="default" depart="416" departPos="243.67" arrivalPos="302.99" arrivalSpeed="0.00" from="4i" to="3i"/>
    <trip id="carIn98:1" type="default" depart="416" departPos="0.00" arrivalPos="400.40" arrivalSpeed="0.00" from="2o" to="2o"/>
    <trip id="h190c1:1" type="default" depart="417" departPos="270.33" arrivalPos="413.94" arrivalSpeed="0.00" from="3i" to="4o"/>
    <trip id="carIn83:1" type="default" depart="417" departPos="243.67" arrivalPos="60.75" arrivalSpeed="0.00" from="2i" to="4o"/>
    <trip id="h271c1:1" type="default" depart="418" departPos="293.25" arrivalPos="318.84" arrivalSpeed="0.00" from="3o" to="4i"/>
    <trip id="carIn43:1" type="default" depart="419" departPos="243.67" arrivalPos="340.79" arrivalSpeed="0.00" from="2i" to="4i"/>
    <trip id="h147c1:1" type="default" depart="420" departPos="375.53" arrivalPos="97.34" arrivalSpeed="0.00" from="4o" to="3i"/>
    <trip id="h4c1:1" type="default" depart="423" departPos="169.26" arrivalPos="274.01" arrivalSpeed="0.00" from="4i" to="3i"/>
    <trip id="h29c1:1" type="default" depart="423" departPos="125.52" arrivalPos="349.59" arrivalSpeed="0.00" from="4i" to="2i"/>
    <trip id="h167c1:1" type="default" depart="423" departPos="196.94" arrivalPos="354.30" arrivalSpeed="0.00" from="3i" to="4o"/>
    <trip id="h485c1:1" type="default" depart="423" departPos="260.79" arrivalPos="32.63" arrivalSpeed="0.00" from="2o" to="4i"/>
    <trip id="h319c1:1" type="default" depart="425" departPos="246.35" arrivalPos="230.37" arrivalSpeed="0.00" from="3o" to="4o"/>
    <trip id="carIn119:1" type="default" depart="426" departPos="243.67" arrivalPos="372.09" arrivalSpeed="0.00" from="4i" to="2i"/>
    <trip id="carIn115:1" type="default" depart="428" departPos="0.00" arrivalPos="415.18" arrivalSpeed="0.00" from="4o" to="2o"/>
    <trip id="carIn44:1" type="default" depart="429" departPos="243.67" arrivalPos="294.97" arrivalSpeed="0.00" from="1i" to="4o"/>
    <trip id="carIn80:1" type="default" depart="430" departPos="243.67" arrivalPos="310.48" arrivalSpeed="0.00" from="2i" to="2i"/>
    <trip id="carIn45:1" type="default" depart="431" departPos="0.00" arrivalPos="476.48" arrivalSpeed="0.00" from="3o" to="2i"/>
    <trip id="h268c2:1" type="default" depart="433" departPos="282.08" arrivalPos="208.37" arrivalSpeed="0.00" from="3o" to="4i"/>
    <trip id="carIn141:1" type="default" depart="435" departPos="243.67" arrivalPos="207.66" arrivalSpeed="0.00" from="3i" to="4i"/>
    <trip id="h229c1:1" type="default" depart="436" departPos="46.21" arrivalPos="439.24" arrivalSpeed="0.00" from="3i" to="3i"/>
    <trip id="h274c1:1" type="default" depart="436" departPos="303.13" arrivalPos="86.12" arrivalSpeed="0.00" from="3o" to="2i"/>
    <trip id="h370c1:1" type="default" depart="436" departPos="93.11" arrivalPos="447.03" arrivalSpeed="0.00" from="2i" to="4i"/>
    <trip id="carIn165:1" type="default" depart="436" departPos="243.67" arrivalPos="116.50" arrivalSpeed="0.00" from="4i" to="3o"/>
    <trip id="carIn178:1" type="default" depart="438" departPos="243.67" arrivalPos="121.03" arrivalSpeed="0.00" from="2i" to="4i"/>
    <trip id="carIn72:1" type="default" depart="439" departPos="243.67" arrivalPos="254.80" arrivalSpeed="0.00" from="4i" to="4i"/>
    <trip id="h451c1:1" type="default" depart="440" departPos="160.89" arrivalPos="11.21" arrivalSpeed="0.00" from="2o" to="3i"/>
    <trip id="carIn64:1" type="default" depart="440" departPos="0.00" arrivalPos="262.93" arrivalSpeed="0.00" from="2o" to="3i"/>
    <trip id="h275c1:1" type="default" depart="441" departPos="248.37" arrivalPos="309.81" arrivalSpeed="0.00" from="3o" to="4o"/>
    <trip id="h288c1:1" type="default" depart="442" departPos="323.02" arrivalPos="297.56" arrivalSpeed="0.00" from="3o" to="2i"/>
    <trip id="h450c1:1" type="default" depart="442" departPos="145.26" arrivalPos="334.19" arrivalSpeed="0.00" from="2o" to="3o"/>
    <trip id="carIn53:1" type="default" depart="442" departPos="0.00" arrivalPos="27.29" arrivalSpeed="0.00" from="3o" to="2i"/>
    <trip id="h206c1:1" type="default" depart="443" departPos="247.49" arrivalPos="68.15" arrivalSpeed="0.00" from="3i" to="4i"/>
    <trip id="carIn13:1" type="default" depart="443" departPos="243.67" arrivalPos="409.68" arrivalSpeed="0.00" from="1i" to="2i"/>
    <trip id="carIn34:1" type="default" depart="443" departPos="0.00" arrivalPos="231.33" arrivalSpeed="0.00" from="4o" to="4o"/>
    <trip id="carIn131:1" type="default" depart="443" departPos="0.00" arrivalPos="476.05" arrivalSpeed="0.00" from="3o" to="2o"/>
    <trip id="carIn175:1" type="default" depart="443" departPos="243.67" arrivalPos="80.27" arrivalSpeed="0.00" from="1i" to="3i"/>
    <trip id="carIn47:1" type="default" depart="444" departPos="0.00" arrivalPos="68.44" arrivalSpeed="0.00" from="2o" to="3i"/>
    <trip id="carIn36:1" type="default" depart="445" departPos="243.67" arrivalPos="344.78" arrivalSpeed="0.00" from="3i" to="2i"/>
    <trip id="carIn153:1" type="default" depart="445" departPos="243.67" arrivalPos="35.94" arrivalSpeed="0.00" from="4i" to="3i"/>
    <trip id="h304c1:1" type="default" depart="446" departPos="316.37" arrivalPos="249.01" arrivalSpeed="0.00" from="3o" to="4i"/>
    <trip id="h407c1:1" type="default" depart="446" departPos="65.48" arrivalPos="386.79" arrivalSpeed="0.00" from="2i" to="4i"/>
    <trip id="carIn90:1" type="default" depart="448" departPos="0.00" arrivalPos="386.32" arrivalSpeed="0.00" from="3o" to="2o"/>
    <trip id="h339c1:1" type="default" depart="449" departPos="140.38" arrivalPos="388.41" arrivalSpeed="0.00" from="2i" to="3i"/>
    <trip id="carIn118:1" type="default" depart="449" departPos="0.00" arrivalPos="12.55" arrivalSpeed="0.00" from="2o" to="4i"/>
    <trip id="h211c1:1" type="default" depart="452" departPos="158.72" arrivalPos="239.92" arrivalSpeed="0.00" from="3i" to="2i"/>
    <trip id="carIn167:1" type="default" depart="453" departPos="0.00" arrivalPos="37.92" arrivalSpeed="0.00" from="4o" to="2o"/>
    <trip id="carIn195:1" type="default" depart="453" departPos="0.00" arrivalPos="20.88" arrivalSpeed="0.00" from="1o" to="2i"/>
    <trip id="h464c1:1" type="default" depart="455" departPos="418.96" arrivalPos="156.12" arrivalSpeed="0.00" from="2o" to="3i"/>
    <trip id="carIn137:1" type="default" depart="455" departPos="243.67" arrivalPos="172.49" arrivalSpeed="0.00" from="3i" to="2o"/>
    <trip id="carIn116:1" type="default" depart="458" departPos="0.00" arrivalPos="116.22" arrivalSpeed="0.00" from="4o" to="2o"/>
    <trip id="h88c1:1" type="default" depart="462" departPos="189.82" arrivalPos="65.27" arrivalSpeed="0.00" from="4o" to="3i"/>
    <trip id="carIn179:1" type="default" depart="463" departPos="0.00" arrivalPos="321.23" arrivalSpeed="0.00" from="3o" to="4i"/>
    <trip id="h86c1:1" type="default" depart="464" departPos="149.29" arrivalPos="423.18" arrivalSpeed="0.00" from="4o" to="3o"/>
    <trip id="carIn74:1" type="default" depart="464" departPos="243.67" arrivalPos="14.24" arrivalSpeed="0.00" from="4i" to="3o"/>
    <trip id="h153c1:1" type="default" depart="466" departPos="148.58" arrivalPos="39.90" arrivalSpeed="0.00" from="4o" to="2i"/>
    <trip id="h204c1:1" type="default" depart="466" departPos="307.44" arrivalPos="197.59" arrivalSpeed="0.00" from="3i" to="4o"/>
    <trip id="carIn161:1" type="default" depart="466" departPos="243.67" arrivalPos="110.99" arrivalSpeed="0.00" from="4i" to="2o"/>
    <trip id="h355c1:1" type="default" depart="467" departPos="253.21" arrivalPos="12.29" arrivalSpeed="0.00" from="2i" to="3i"/>
    <trip id="carIn39:1" type="default" depart="468" departPos="0.00" arrivalPos="17.28" arrivalSpeed="0.00" from="3o" to="4i"/>
    <trip id="h78c1:1" type="default" depart="470" departPos="454.83" arrivalPos="396.98" arrivalSpeed="0.00" from="4o" to="3o"/>
    <trip id="carIn55:1" type="default" depart="471" departPos="243.67" arrivalPos="243.67" arrivalSpeed="0.00" from="3i" to="1i"/>
    <trip id="h426c1:1" type="default" depart="474" departPos="275.35" arrivalPos="200.54" arrivalSpeed="0.00" from="2o" to="3i"/>
    <trip id="carIn3:1" type="default" depart="474" departPos="243.67" arrivalPos="317.89" arrivalSpeed="0.00" from="2i" to="4o"/>
    <trip id="carIn79:1" type="default" depart="474" departPos="243.67" arrivalPos="300.74" arrivalSpeed="0.00" from="3i" to="3o"/>
    <trip id="carIn92:1" type="default" depart="475" departPos="243.67" arrivalPos="167.72" arrivalSpeed="0.00" from="3i" to="3i"/>
    <trip id="h156c1:1" type="default" depart="476" departPos="381.79" arrivalPos="281.79" arrivalSpeed="0.00" from="4o" to="2i"/>
    <trip id="carIn127:1" type="default" depart="476" departPos="243.67" arrivalPos="329.13" arrivalSpeed="0.00" from="4i" to="4o"/>
    <trip id="carIn146:1" type="default" depart="477" departPos="243.67" arrivalPos="280.00" arrivalSpeed="0.00" from="1i" to="4o"/>
    <trip id="h291c1:1" type="default" depart="482" departPos="212.54" arrivalPos="218.92" arrivalSpeed="0.00" from="3o" to="4o"/>
    <trip id="h322c1:1" type="default" depart="484" departPos="181.40" arrivalPos="436.24" arrivalSpeed="0.00" from="3o" to="4o"/>
    <trip id="carIn168:1" type="default" depart="484" departPos="243.67" arrivalPos="219.64" arrivalSpeed="0.00" from="2i" to="4o"/>
    <trip id="h120c1:1" type="default" depart="488" departPos="9.31" arrivalPos="383.92" arrivalSpeed="0.00" from="4o" to="3o"/>
    <trip id="carIn82:1" type="default" depart="488" departPos="243.67" arrivalPos="243.67" arrivalSpeed="0.00" from="4i" to="3i"/>
    <trip id="carIn120:1" type="default" depart="488" departPos="243.67" arrivalPos="468.14" arrivalSpeed="0.00" from="2i" to="2o"/>
    <trip id="h429c2:1" type="default" depart="489" departPos="9.57" arrivalPos="28.00" arrivalSpeed="0.00" from="2o" to="2i"/>
    <trip id="h200c1:1" type="default" depart="491" departPos="94.02" arrivalPos="124.98" arrivalSpeed="0.00" from="3i" to="2o"/>
    <trip id="carIn46:1" type="default" depart="491" departPos="243.67" arrivalPos="7.47" arrivalSpeed="0.00" from="4i" to="1o"/>
    <trip id="carIn26:1" type="default" depart="492" departPos="243.67" arrivalPos="278.53" arrivalSpeed="0.00" from="1i" to="3o"/>
    <trip id="carIn71:1" type="default" depart="492" departPos="243.67" arrivalPos="29.55" arrivalSpeed="0.00" from="2i" to="4o"/>
    <trip id="h405c1:1" type="default" depart="493" departPos="173.99" arrivalPos="22.48" arrivalSpeed="0.00" from="2i" to="3i"/>
    <trip id="h135c1:1" type="default" depart="494" departPos="16.26" arrivalPos="429.30" arrivalSpeed="0.00" from="4o" to="3o"/>
    <trip id="h93c1:1" type="default" depart="497" departPos="72.26" arrivalPos="132.30" arrivalSpeed="0.00" from="4o" to="3i"/>
    <trip id="carIn1:1" type="default" depart="497" departPos="243.67" arrivalPos="118.36" arrivalSpeed="0.00" from="3i" to="2i"/>
    <trip id="carIn88:1" type="default" depart="497" departPos="243.67" arrivalPos="26.84" arrivalSpeed="0.00" from="2i" to="2o"/>
    <trip id="h408c1:1" type="default" depart="500" departPos="217.88" arrivalPos="243.67" arrivalSpeed="0.00" from="2i" to="3i"/>
    <trip id="carIn130:1" type="default" depart="500" departPos="243.67" arrivalPos="91.19" arrivalSpeed="0.00" from="2i" to="3i"/>
    <trip id="carIn5:1" type="default" depart="501" departPos="243.67" arrivalPos="266.68" arrivalSpeed="0.00" from="4i" to="4o"/>
    <trip id="carIn152:1" type="default" depart="501" departPos="0.00" arrivalPos="243.67" arrivalSpeed="0.00" from="3o" to="1i"/>
    <trip id="h169c1:1" type="default" depart="502" departPos="97.72" arrivalPos="444.56" arrivalSpeed="0.00" from="3i" to="2o"/>
    <trip id="carIn185:1" type="default" depart="502" departPos="0.00" arrivalPos="3.64" arrivalSpeed="0.00" from="2o" to="4i"/>