<?xml version="1.0" encoding="UTF-8"?>

<!-- generated on 03/23/18 20:48:05 by SUMO activitygen Version 0.31.0
<?xml version="1.0" encoding="UTF-8"?>

<configuration xmlns:xsi="http://www.w3.org/2001/XMLSchema-instance" xsi:noNamespaceSchemaLocation="http://sumo.dlr.de/xsd/activitygenConfiguration.xsd">

    <input>
        <net-file value="cross.net.xml"/>
        <stat-file value="hello.stat.xml"/>
    </input>

    <output>
        <output-file value="cross5.trips.rou.xml"/>
    </output>

</configuration>
-->

<routes xmlns:xsi="http://www.w3.org/2001/XMLSchema-instance" xsi:noNamespaceSchemaLocation="http://sumo.dlr.de/xsd/routes_file.xsd">
    <vType id="default" vClass="passenger" color="red"/>
    <vType id="random" vClass="passenger" color="blue"/>
    <vType id="bus" vClass="bus" color="green"/>

    <trip id="h328c1:1" type="default" depart="103" departPos="242.29" arrivalPos="441.84" arrivalSpeed="0.00" from="2o" to="1o"/>
    <trip id="carIn123:1" type="default" depart="131" departPos="243.67" arrivalPos="27.78" arrivalSpeed="0.00" from="2i" to="4i"/>
    <trip id="h2c1:1" type="default" depart="134" departPos="247.07" arrivalPos="453.39" arrivalSpeed="0.00" from="4i" to="3o"/>
    <trip id="h162c1:1" type="default" depart="138" departPos="106.83" arrivalPos="180.45" arrivalSpeed="0.00" from="3i" to="2i"/>
    <trip id="h393c1:1" type="default" depart="143" departPos="23.45" arrivalPos="273.74" arrivalSpeed="0.00" from="1i" to="2i"/>
    <trip id="h127c1:1" type="default" depart="148" departPos="189.88" arrivalPos="6.50" arrivalSpeed="0.00" from="3i" to="4i"/>
    <trip id="h308c1:1" type="default" depart="152" departPos="44.09" arrivalPos="239.44" arrivalSpeed="0.00" from="2i" to="3o"/>
    <trip id="h163c1:1" type="default" depart="153" departPos="33.44" arrivalPos="54.22" arrivalSpeed="0.00" from="3i" to="2i"/>
    <trip id="h441c1:1" type="default" depart="157" departPos="431.72" arrivalPos="35.76" arrivalSpeed="0.00" from="1o" to="2i"/>
    <trip id="h223c1:1" type="default" depart="179" departPos="304.62" arrivalPos="386.84" arrivalSpeed="0.00" from="3o" to="2o"/>
    <trip id="h147c1:1" type="default" depart="186" departPos="160.68" arrivalPos="56.03" arrivalSpeed="0.00" from="3i" to="4i"/>
    <trip id="h255c1:1" type="default" depart="191" departPos="78.16" arrivalPos="288.48" arrivalSpeed="0.00" from="2i" to="3o"/>
    <trip id="h107c1:1" type="default" depart="198" departPos="435.09" arrivalPos="449.49" arrivalSpeed="0.00" from="4o" to="3i"/>
    <trip id="h122c1:1" type="default" depart="204" departPos="432.81" arrivalPos="35.86" arrivalSpeed="0.00" from="3i" to="3i"/>
    <trip id="h471c1:1" type="default" depart="207" departPos="176.24" arrivalPos="261.87" arrivalSpeed="0.00" from="1o" to="2o"/>
    <trip id="carIn191:1" type="default" depart="209" departPos="0.00" arrivalPos="452.81" arrivalSpeed="0.00" from="4o" to="4o"/>
    <trip id="h385c1:1" type="default" depart="210" departPos="247.09" arrivalPos="450.70" arrivalSpeed="0.00" from="1i" to="3o"/>
    <trip id="carIn160:1" type="default" depart="212" departPos="243.67" arrivalPos="322.11" arrivalSpeed="0.00" from="3i" to="2o"/>
    <trip id="carIn200:1" type="default" depart="219" departPos="243.67" arrivalPos="427.15" arrivalSpeed="0.00" from="2i" to="4o"/>
    <trip id="h65c1:1" type="default" depart="226" departPos="116.06" arrivalPos="334.43" arrivalSpeed="0.00" from="4o" to="3o"/>
    <trip id="carIn90:1" type="default" depart="227" departPos="243.67" arrivalPos="159.85" arrivalSpeed="0.00" from="1i" to="2i"/>
    <trip id="h237c1:1" type="default" depart="236" departPos="464.30" arrivalPos="234.84" arrivalSpeed="0.00" from="3o" to="1o"/>
    <trip id="h221c1:1" type="default" depart="237" departPos="424.72" arrivalPos="188.10" arrivalSpeed="0.00" from="3o" to="2o"/>
    <trip id="h209c1:1" type="default" depart="241" departPos="379.23" arrivalPos="20.83" arrivalSpeed="0.00" from="3o" to="2i"/>
    <trip id="h269c1:1" type="default" depart="245" departPos="148.38" arrivalPos="19.17" arrivalSpeed="0.00" from="2i" to="1i"/>
    <trip id="h131c1:1" type="default" depart="250" departPos="359.10" arrivalPos="145.30" arrivalSpeed="0.00" from="3i" to="1i"/>
    <trip id="carIn85:1" type="default" depart="250" departPos="243.67" arrivalPos="3.21" arrivalSpeed="0.00" from="3i" to="1i"/>
    <trip id="carIn130:1" type="default" depart="255" departPos="243.67" arrivalPos="424.47" arrivalSpeed="0.00" from="3i" to="4o"/>
    <trip id="h170c1:1" type="default" depart="261" departPos="73.76" arrivalPos="260.44" arrivalSpeed="0.00" from="3i" to="1i"/>
    <trip id="h129c1:1" type="default" depart="262" departPos="407.76" arrivalPos="102.43" arrivalSpeed="0.00" from="3i" to="1i"/>
    <trip id="h191c1:1" type="default" depart="265" departPos="400.43" arrivalPos="449.04" arrivalSpeed="0.00" from="3o" to="4i"/>
    <trip id="h358c1:1" type="default" depart="269" departPos="154.96" arrivalPos="105.54" arrivalSpeed="0.00" from="2o" to="4i"/>
    <trip id="h500c1:1" type="default" depart="276" departPos="445.00" arrivalPos="206.89" arrivalSpeed="0.00" from="1o" to="3i"/>
    <trip id="h369c1:1" type="default" depart="277" departPos="278.83" arrivalPos="412.98" arrivalSpeed="0.00" from="2o" to="4o"/>
    <trip id="h255c2:1" type="default" depart="278" departPos="78.16" arrivalPos="226.19" arrivalSpeed="0.00" from="2i" to="4i"/>
    <trip id="h280c1:1" type="default" depart="279" departPos="118.29" arrivalPos="376.65" arrivalSpeed="0.00" from="2i" to="1o"/>
    <trip id="carIn184:1" type="default" depart="279" departPos="243.67" arrivalPos="413.67" arrivalSpeed="0.00" from="2i" to="1o"/>
    <trip id="h199c1:1" type="default" depart="282" departPos="43.39" arrivalPos="477.70" arrivalSpeed="0.00" from="3o" to="2o"/>
    <trip id="h215c1:1" type="default" depart="282" departPos="447.56" arrivalPos="429.54" arrivalSpeed="0.00" from="3o" to="1o"/>
    <trip id="h260c1:1" type="default" depart="286" departPos="146.49" arrivalPos="204.99" arrivalSpeed="0.00" from="2i" to="3i"/>
    <trip id="h231c1:1" type="default" depart="291" departPos="487.76" arrivalPos="349.20" arrivalSpeed="0.00" from="3o" to="4o"/>
    <trip id="h372c1:1" type="default" depart="291" departPos="229.97" arrivalPos="160.44" arrivalSpeed="0.00" from="1i" to="3i"/>
    <trip id="carIn167:1" type="default" depart="291" departPos="243.67" arrivalPos="483.61" arrivalSpeed="0.00" from="3i" to="4o"/>
    <trip id="h387c2:1" type="default" depart="292" departPos="92.46" arrivalPos="293.40" arrivalSpeed="0.00" from="1i" to="2i"/>
    <trip id="h190c1:1" type="default" depart="293" departPos="348.76" arrivalPos="156.78" arrivalSpeed="0.00" from="3o" to="4i"/>
    <trip id="h184c1:1" type="default" depart="295" departPos="201.71" arrivalPos="408.89" arrivalSpeed="0.00" from="3i" to="1o"/>
    <trip id="h500c2:1" type="default" depart="296" departPos="445.00" arrivalPos="388.95" arrivalSpeed="0.00" from="1o" to="2i"/>
    <trip id="carIn74:1" type="default" depart="296" departPos="243.67" arrivalPos="109.04" arrivalSpeed="0.00" from="2i" to="1i"/>
    <trip id="carIn25:1" type="default" depart="297" departPos="243.67" arrivalPos="353.03" arrivalSpeed="0.00" from="3i" to="1o"/>
    <trip id="h154c2:1" type="default" depart="301" departPos="109.17" arrivalPos="157.33" arrivalSpeed="0.00" from="3i" to="4i"/>
    <trip id="h87c1:1" type="default" depart="302" departPos="2.69" arrivalPos="79.21" arrivalSpeed="0.00" from="4o" to="1i"/>
    <trip id="h387c1:1" type="default" depart="305" departPos="92.46" arrivalPos="69.38" arrivalSpeed="0.00" from="1i" to="3i"/>
    <trip id="h456c1:1" type="default" depart="305" departPos="360.92" arrivalPos="448.89" arrivalSpeed="0.00" from="1o" to="2o"/>
    <trip id="carIn103:1" type="default" depart="305" departPos="0.00" arrivalPos="429.10" arrivalSpeed="0.00" from="2o" to="1o"/>
    <trip id="h315c1:1" type="default" depart="306" departPos="329.20" arrivalPos="243.67" arrivalSpeed="0.00" from="2o" to="1i"/>
    <trip id="h193c1:1" type="default" depart="309" departPos="108.63" arrivalPos="343.52" arrivalSpeed="0.00" from="3o" to="4o"/>
    <trip id="carIn97:1" type="default" depart="309" departPos="243.67" arrivalPos="474.39" arrivalSpeed="0.00" from="3i" to="4o"/>
    <trip id="carIn136:1" type="default" depart="309" departPos="243.67" arrivalPos="51.95" arrivalSpeed="0.00" from="2i" to="1i"/>
    <trip id="h441c2:1" type="default" depart="310" departPos="431.72" arrivalPos="322.75" arrivalSpeed="0.00" from="1o" to="2o"/>
    <trip id="carIn102:1" type="default" depart="310" departPos="0.00" arrivalPos="483.82" arrivalSpeed="0.00" from="3o" to="2o"/>
    <trip id="h229c1:1" type="default" depart="313" departPos="277.59" arrivalPos="237.30" arrivalSpeed="0.00" from="3o" to="4o"/>
    <trip id="h383c1:1" type="default" depart="313" departPos="120.09" arrivalPos="441.43" arrivalSpeed="0.00" from="1i" to="4i"/>
    <trip id="carIn105:1" type="default" depart="313" departPos="243.67" arrivalPos="0.42" arrivalSpeed="0.00" from="1i" to="4i"/>
    <trip id="carIn17:1" type="default" depart="315" departPos="243.67" arrivalPos="485.13" arrivalSpeed="0.00" from="2i" to="3o"/>
    <trip id="carIn48:1" type="default" depart="315" departPos="243.67" arrivalPos="238.17" arrivalSpeed="0.00" from="2i" to="1i"/>
    <trip id="carIn31:1" type="default" depart="316" departPos="243.67" arrivalPos="380.39" arrivalSpeed="0.00" from="4i" to="3i"/>
    <trip id="carIn192:1" type="default" depart="316" departPos="0.00" arrivalPos="282.07" arrivalSpeed="0.00" from="3o" to="4o"/>
    <trip id="h397c1:1" type="default" depart="322" departPos="4.78" arrivalPos="243.67" arrivalSpeed="0.00" from="1i" to="4i"/>
    <trip id="h22c1:1" type="default" depart="324" departPos="95.74" arrivalPos="6.58" arrivalSpeed="0.00" from="4i" to="1i"/>
    <trip id="h377c1:1" type="default" depart="324" departPos="23.38" arrivalPos="135.59" arrivalSpeed="0.00" from="1i" to="3i"/>
    <trip id="carIn86:1" type="default" depart="324" departPos="243.67" arrivalPos="245.15" arrivalSpeed="0.00" from="2i" to="3o"/>
    <trip id="h12c1:1" type="default" depart="327" departPos="353.60" arrivalPos="125.01" arrivalSpeed="0.00" from="4i" to="1i"/>
    <trip id="carIn149:1" type="default" depart="328" departPos="0.00" arrivalPos="466.55" arrivalSpeed="0.00" from="1o" to="3o"/>
    <trip id="carIn70:1" type="default" depart="329" departPos="0.00" arrivalPos="228.92" arrivalSpeed="0.00" from="1o" to="4i"/>
    <trip id="carIn177:1" type="default" depart="330" departPos="243.67" arrivalPos="158.04" arrivalSpeed="0.00" from="3i" to="4i"/>
    <trip id="h20c1:1" type="default" depart="331" departPos="159.63" arrivalPos="430.62" arrivalSpeed="0.00" from="4i" to="2o"/>
    <trip id="h238c1:1" type="default" depart="331" departPos="400.47" arrivalPos="89.60" arrivalSpeed="0.00" from="3o" to="4i"/>
    <trip id="carIn4:1" type="default" depart="331" departPos="243.67" arrivalPos="478.40" arrivalSpeed="0.00" from="3i" to="1o"/>
    <trip id="carIn101:1" type="default" depart="333" departPos="243.67" arrivalPos="2.91" arrivalSpeed="0.00" from="3i" to="2i"/>
    <trip id="carIn165:1" type="default" depart="335" departPos="243.67" arrivalPos="141.59" arrivalSpeed="0.00" from="4i" to="3i"/>
    <trip id="h144c1:1" type="default" depart="341" departPos="110.13" arrivalPos="179.09" arrivalSpeed="0.00" from="3i" to="4i"/>
    <trip id="h198c1:1" type="default" depart="341" departPos="297.67" arrivalPos="97.88" arrivalSpeed="0.00" from="3o" to="2i"/>
    <trip id="h182c1:1" type="default" depart="344" departPos="19.29" arrivalPos="27.62" arrivalSpeed="0.00" from="3i" to="1i"/>
    <trip id="h130c1:1" type="default" depart="346" departPos="229.41" arrivalPos="227.32" arrivalSpeed="0.00" from="3i" to="1o"/>
    <trip id="h464c1:1" type="default" depart="348" departPos="485.92" arrivalPos="307.07" arrivalSpeed="0.00" from="1o" to="4o"/>
    <trip id="carIn147:1" type="default" depart="350" departPos="243.67" arrivalPos="368.26" arrivalSpeed="0.00" from="2i" to="3i"/>
    <trip id="carIn120:1" type="default" depart="352" departPos="0.00" arrivalPos="283.45" arrivalSpeed="0.00" from="2o" to="4i"/>
    <trip id="h319c1:1" type="default" depart="353" departPos="309.93" arrivalPos="254.77" arrivalSpeed="0.00" from="2o" to="4o"/>
    <trip id="h326c1:1" type="default" depart="353" departPos="141.35" arrivalPos="173.99" arrivalSpeed="0.00" from="2o" to="3i"/>
    <trip id="h366c1:1" type="default" depart="353" departPos="287.12" arrivalPos="200.78" arrivalSpeed="0.00" from="2o" to="1o"/>
    <trip id="h386c1:1" type="default" depart="353" departPos="333.61" arrivalPos="446.75" arrivalSpeed="0.00" from="1i" to="3o"/>
    <trip id="h293c1:1" type="default" depart="355" departPos="217.91" arrivalPos="61.69" arrivalSpeed="0.00" from="2i" to="3i"/>
    <trip id="h115c1:1" type="default" depart="356" departPos="429.18" arrivalPos="232.83" arrivalSpeed="0.00" from="4o" to="3i"/>
    <trip id="carIn141:1" type="default" depart="356" departPos="243.67" arrivalPos="463.18" arrivalSpeed="0.00" from="1i" to="4o"/>
    <trip id="h440c1:1" type="default" depart="357" departPos="121.42" arrivalPos="139.57" arrivalSpeed="0.00" from="1o" to="2i"/>
    <trip id="h204c1:1" type="default" depart="360" departPos="412.91" arrivalPos="178.84" arrivalSpeed="0.00" from="3o" to="2o"/>
    <trip id="h240c1:1" type="default" depart="360" departPos="4.78" arrivalPos="129.26" arrivalSpeed="0.00" from="3o" to="4i"/>
    <trip id="carIn119:1" type="default" depart="360" departPos="0.00" arrivalPos="445.39" arrivalSpeed="0.00" from="1o" to="1o"/>
    <trip id="carIn183:1" type="default" depart="360" departPos="0.00" arrivalPos="447.42" arrivalSpeed="0.00" from="2o" to="4i"/>
    <trip id="carIn45:1" type="default" depart="361" departPos="243.67" arrivalPos="193.79" arrivalSpeed="0.00" from="3i" to="4i"/>
    <trip id="h45c1:1" type="default" depart="363" departPos="139.88" arrivalPos="136.40" arrivalSpeed="0.00" from="4i" to="1o"/>
    <trip id="carIn152:1" type="default" depart="364" departPos="243.67" arrivalPos="149.74" arrivalSpeed="0.00" from="3i" to="4o"/>
    <trip id="carIn190:1" type="default" depart="364" departPos="243.67" arrivalPos="262.65" arrivalSpeed="0.00" from="1i" to="2i"/>
    <trip id="h323c1:1" type="default" depart="365" departPos="244.14" arrivalPos="390.30" arrivalSpeed="0.00" from="2o" to="1o"/>
    <trip id="h339c1:1" type="default" depart="365" departPos="152.11" arrivalPos="484.04" arrivalSpeed="0.00" from="2o" to="4o"/>
    <trip id="carIn92:1" type="default" depart="365" departPos="0.00" arrivalPos="342.52" arrivalSpeed="0.00" from="1o" to="2o"/>
    <trip id="carIn106:1" type="default" depart="366" departPos="243.67" arrivalPos="423.77" arrivalSpeed="0.00" from="4i" to="2i"/>
    <trip id="h95c1:1" type="default" depart="368" departPos="352.87" arrivalPos="14.35" arrivalSpeed="0.00" from="4o" to="1i"/>
    <trip id="carIn188:1" type="default" depart="368" departPos="243.67" arrivalPos="94.46" arrivalSpeed="0.00" from="1i" to="3i"/>
    <trip id="h64c1:1" type="default" depart="369" departPos="395.60" arrivalPos="10.39" arrivalSpeed="0.00" from="4o" to="3i"/>
    <trip id="h417c1:1" type="default" depart="370" departPos="167.91" arrivalPos="129.04" arrivalSpeed="0.00" from="1i" to="4i"/>
    <trip id="carIn131:1" type="default" depart="370" departPos="243.67" arrivalPos="453.52" arrivalSpeed="0.00" from="3i" to="4i"/>
    <trip id="carIn178:1" type="default" depart="370" departPos="243.67" arrivalPos="336.80" arrivalSpeed="0.00" from="4i" to="3i"/>
    <trip id="h23c1:1" type="default" depart="371" departPos="252.70" arrivalPos="146.98" arrivalSpeed="0.00" from="4i" to="3i"/>
    <trip id="h136c1:1" type="default" depart="371" departPos="266.31" arrivalPos="356.41" arrivalSpeed="0.00" from="3i" to="1o"/>
    <trip id="h84c1:1" type="default" depart="372" departPos="295.28" arrivalPos="24.61" arrivalSpeed="0.00" from="4o" to="1i"/>
    <trip id="carIn134:1" type="default" depart="372" departPos="243.67" arrivalPos="480.15" arrivalSpeed="0.00" from="2i" to="2o"/>
    <trip id="carIn172:1" type="default" depart="373" departPos="0.00" arrivalPos="24.57" arrivalSpeed="0.00" from="2o" to="2o"/>
    <trip id="carIn187:1" type="default" depart="373" departPos="243.67" arrivalPos="372.31" arrivalSpeed="0.00" from="3i" to="3o"/>
    <trip id="carIn82:1" type="default" depart="375" departPos="0.00" arrivalPos="273.47" arrivalSpeed="0.00" from="4o" to="4o"/>
    <trip id="h164c1:1" type="default" depart="376" departPos="218.59" arrivalPos="483.92" arrivalSpeed="0.00" from="3i" to="4o"/>
    <trip id="h53c2:1" type="default" depart="377" departPos="66.95" arrivalPos="168.71" arrivalSpeed="0.00" from="4i" to="1i"/>
    <trip id="h487c1:1" type="default" depart="377" departPos="419.55" arrivalPos="243.67" arrivalSpeed="0.00" from="1o" to="3i"/>
    <trip id="h322c1:1" type="default" depart="378" departPos="295.80" arrivalPos="278.16" arrivalSpeed="0.00" from="2o" to="3o"/>
    <trip id="h186c1:1" type="default" depart="380" departPos="149.31" arrivalPos="366.31" arrivalSpeed="0.00" from="3o" to="1o"/>
    <trip id="carIn80:1" type="default" depart="380" departPos="243.67" arrivalPos="395.66" arrivalSpeed="0.00" from="4i" to="1i"/>
    <trip id="h460c1:1" type="default" depart="386" departPos="60.96" arrivalPos="447.47" arrivalSpeed="0.00" from="1o" to="3o"/>
    <trip id="carIn138:1" type="default" depart="386" departPos="0.00" arrivalPos="17.73" arrivalSpeed="0.00" from="3o" to="3i"/>
    <trip id="carIn96:1" type="default" depart="387" departPos="243.67" arrivalPos="349.98" arrivalSpeed="0.00" from="4i" to="4o"/>
    <trip id="h166c1:1" type="default" depart="390" departPos="48.35" arrivalPos="145.18" arrivalSpeed="0.00" from="3i" to="1o"/>
    <trip id="carIn53:1" type="default" depart="390" departPos="243.67" arrivalPos="250.66" arrivalSpeed="0.00" from="2i" to="4i"/>
    <trip id="carIn155:1" type="default" depart="391" departPos="0.00" arrivalPos="314.40" arrivalSpeed="0.00" from="4o" to="1i"/>
    <trip id="h34c1:1" type="default" depart="392" departPos="4.75" arrivalPos="162.88" arrivalSpeed="0.00" from="4i" to="1i"/>
    <trip id="h138c1:1" type="default" depart="392" departPos="181.85" arrivalPos="352.74" arrivalSpeed="0.00" from="3i" to="4i"/>
    <trip id="carIn169:1" type="default" depart="396" departPos="243.67" arrivalPos="201.26" arrivalSpeed="0.00" from="3i" to="4i"/>
    <trip id="carIn52:1" type="default" depart="398" departPos="243.67" arrivalPos="418.40" arrivalSpeed="0.00" from="1i" to="2o"/>
    <trip id="carIn154:1" type="default" depart="401" departPos="243.67" arrivalPos="348.76" arrivalSpeed="0.00" from="3i" to="2i"/>
    <trip id="h484c1:1" type="default" depart="403" departPos="398.30" arrivalPos="243.67" arrivalSpeed="0.00" from="1o" to="2i"/>
    <trip id="carIn18:1" type="default" depart="403" departPos="0.00" arrivalPos="229.08" arrivalSpeed="0.00" from="3o" to="2i"/>
    <trip id="h34c2:1" type="default" depart="404" departPos="4.75" arrivalPos="409.01" arrivalSpeed="0.00" from="4i" to="2o"/>
    <trip id="h414c1:1" type="default" depart="404" departPos="97.80" arrivalPos="177.63" arrivalSpeed="0.00" from="1i" to="3o"/>
    <trip id="carIn91:1" type="default" depart="404" departPos="243.67" arrivalPos="266.15" arrivalSpeed="0.00" from="3i" to="4i"/>
    <trip id="h53c1:1" type="default" depart="406" departPos="66.95" arrivalPos="334.04" arrivalSpeed="0.00" from="4i" to="3o"/>
    <trip id="h86c1:1" type="default" depart="408" departPos="255.68" arrivalPos="30.49" arrivalSpeed="0.00" from="4o" to="3i"/>
    <trip id="carIn135:1" type="default" depart="409" departPos="243.67" arrivalPos="476.75" arrivalSpeed="0.00" from="2i" to="3o"/>
    <trip id="h62c1:1" type="default" depart="410" departPos="244.97" arrivalPos="345.46" arrivalSpeed="0.00" from="4i" to="3o"/>
    <trip id="h463c1:1" type="default" depart="410" departPos="297.99" arrivalPos="65.79" arrivalSpeed="0.00" from="1o" to="2o"/>
    <trip id="carIn60:1" type="default" depart="410" departPos="0.00" arrivalPos="195.87" arrivalSpeed="0.00" from="4o" to="1o"/>
    <trip id="carIn114:1" type="default" depart="413" departPos="0.00" arrivalPos="80.58" arrivalSpeed="0.00" from="2o" to="3i"/>
    <trip id="h376c1:1" type="default" depart="414" departPos="129.05" arrivalPos="99.49" arrivalSpeed="0.00" from="1i" to="3o"/>
    <trip id="h420c1:1" type="default" depart="415" departPos="203.54" arrivalPos="243.67" arrivalSpeed="0.00" from="1i" to="3i"/>
    <trip id="h479c1:1" type="default" depart="416" departPos="341.93" arrivalPos="243.67" arrivalSpeed="0.00" from="1o" to="2i"/>
    <trip id="carIn12:1" type="default" depart="416" departPos="243.67" arrivalPos="262.53" arrivalSpeed="0.00" from="4i" to="1i"/>
    <trip id="carIn79:1" type="default" depart="416" departPos="243.67" arrivalPos="375.22" arrivalSpeed="0.00" from="3i" to="4o"/>
    <trip id="carIn5:1" type="default" depart="418" departPos="243.67" arrivalPos="215.04" arrivalSpeed="0.00" from="1i" to="1o"/>
    <trip id="h469c2:1" type="default" depart="421" departPos="400.10" arrivalPos="208.36" arrivalSpeed="0.00" from="1o" to="3i"/>
    <trip id="carIn170:1" type="default" depart="421" departPos="243.67" arrivalPos="243.67" arrivalSpeed="0.00" from="2i" to="2i"/>
    <trip id="carIn166:1" type="default" depart="422" departPos="0.00" arrivalPos="320.13" arrivalSpeed="0.00" from="2o" to="2o"/>
    <trip id="h155c2:1" type="default" depart="423" departPos="237.76" arrivalPos="275.08" arrivalSpeed="0.00" from="3i" to="2o"/>
    <trip id="carIn139:1" type="default" depart="425" departPos="243.67" arrivalPos="17.85" arrivalSpeed="0.00" from="1i" to="3o"/>
    <trip id="h412c1:1" type="default" depart="430" departPos="83.69" arrivalPos="273.97" arrivalSpeed="0.00" from="1i" to="3i"/>
    <trip id="h235c1:1" type="default" depart="433" departPos="247.82" arrivalPos="315.73" arrivalSpeed="0.00" from="3o" to="2o"/>
    <trip id="carIn98:1" type="default" depart="433" departPos="243.67" arrivalPos="469.07" arrivalSpeed="0.00" from="2i" to="4i"/>
    <trip id="carIn34:1" type="default" depart="434" departPos="243.67" arrivalPos="238.19" arrivalSpeed="0.00" from="3i" to="4i"/>
    <trip id="h256c1:1" type="default" depart="435" departPos="326.08" arrivalPos="394.68" arrivalSpeed="0.00" from="2i" to="1o"/>
    <trip id="h8c1:1" type="default" depart="438" departPos="411.36" arrivalPos="207.27" arrivalSpeed="0.00" from="4i" to="3i"/>
    <trip id="carIn162:1" type="default" depart="438" departPos="243.67" arrivalPos="262.87" arrivalSpeed="0.00" from="1i" to="2i"/>
    <trip id="h232c1:1" type="default" depart="441" departPos="366.20" arrivalPos="435.24" arrivalSpeed="0.00" from="3o" to="4i"/>
    <trip id="carIn43:1" type="default" depart="441" departPos="243.67" arrivalPos="23.94" arrivalSpeed="0.00" from="4i" to="2i"/>
    <trip id="h177c1:1" type="default" depart="442" departPos="107.09" arrivalPos="145.99" arrivalSpeed="0.00" from="3i" to="1i"/>
    <trip id="h50c1:1" type="default" depart="444" departPos="120.70" arrivalPos="479.43" arrivalSpeed="0.00" from="4i" to="2o"/>
    <trip id="h60c1:1" type="default" depart="444" departPos="1.61" arrivalPos="288.85" arrivalSpeed="0.00" from="4i" to="3o"/>
    <trip id="h71c1:1" type="default" depart="444" departPos="304.53" arrivalPos="320.22" arrivalSpeed="0.00" from="4o" to="2o"/>
    <trip id="carIn39:1" type="default" depart="446" departPos="243.67" arrivalPos="243.67" arrivalSpeed="0.00" from="1i" to="4i"/>
    <trip id="carIn77:1" type="default" depart="447" departPos="0.00" arrivalPos="185.84" arrivalSpeed="0.00" from="3o" to="2i"/>
    <trip id="h19c2:1" type="default" depart="449" departPos="264.20" arrivalPos="464.34" arrivalSpeed="0.00" from="4i" to="3o"/>
    <trip id="h44c1:1" type="default" depart="449" departPos="116.05" arrivalPos="6.62" arrivalSpeed="0.00" from="4i" to="2o"/>
    <trip id="h381c1:1" type="default" depart="449" departPos="58.49" arrivalPos="410.18" arrivalSpeed="0.00" from="1i" to="3o"/>
    <trip id="carIn19:1" type="default" depart="449" departPos="0.00" arrivalPos="38.25" arrivalSpeed="0.00" from="1o" to="3i"/>
    <trip id="carIn99:1" type="default" depart="449" departPos="0.00" arrivalPos="43.50" arrivalSpeed="0.00" from="3o" to="4i"/>
    <trip id="h469c1:1" type="default" depart="450" departPos="400.10" arrivalPos="159.57" arrivalSpeed="0.00" from="1o" to="3o"/>
    <trip id="h46c1:1" type="default" depart="451" departPos="146.33" arrivalPos="330.08" arrivalSpeed="0.00" from="4i" to="2o"/>
    <trip id="carIn117:1" type="default" depart="452" departPos="243.67" arrivalPos="131.37" arrivalSpeed="0.00" from="4i" to="2o"/>
    <trip id="h368c1:1" type="default" depart="455" departPos="96.83" arrivalPos="61.27" arrivalSpeed="0.00" from="2o" to="4i"/>
    <trip id="h137c1:1" type="default" depart="456" departPos="30.72" arrivalPos="452.40" arrivalSpeed="0.00" from="3i" to="4i"/>
    <trip id="carIn49:1" type="default" depart="456" departPos="243.67" arrivalPos="451.67" arrivalSpeed="0.00" from="4i" to="1i"/>
    <trip id="carIn122:1" type="default" depart="458" departPos="243.67" arrivalPos="133.43" arrivalSpeed="0.00" from="1i" to="2i"/>
    <trip id="h126c1:1" type="default" depart="460" departPos="256.02" arrivalPos="344.32" arrivalSpeed="0.00" from="3i" to="4o"/>
    <trip id="h409c1:1" type="default" depart="460" departPos="382.63" arrivalPos="53.59" arrivalSpeed="0.00" from="1i" to="4i"/>
    <trip id="carIn21:1" type="default" depart="460" departPos="243.67" arrivalPos="383.95" arrivalSpeed="0.00" from="3i" to="1i"/>
    <trip id="h213c1:1" type="default" depart="461" departPos="184.57" arrivalPos="395.58" arrivalSpeed="0.00" from="3o" to="4o"/>
    <trip id="h477c1:1" type="default" depart="461" departPos="473.19" arrivalPos="243.67" arrivalSpeed="0.00" from="1o" to="3i"/>
    <trip id="carIn40:1" type="default" depart="462" departPos="243.67" arrivalPos="205.15" arrivalSpeed="0.00" from="4i" to="1o"/>
    <trip id="carIn46:1" type="default" depart="462" departPos="243.67" arrivalPos="108.59" arrivalSpeed="0.00" from="3i" to="1o"/>
    <trip id="carIn24:1" type="default" depart="463" departPos="0.00" arrivalPos="111.65" arrivalSpeed="0.00" from="1o" to="2i"/>
    <trip id="carIn195:1" type="default" depart="463" departPos="0.00" arrivalPos="217.31" arrivalSpeed="0.00" from="4o" to="3o"/>
    <trip id="h166c2:1" type="default" depart="464" departPos="48.35" arrivalPos="446.62" arrivalSpeed="0.00" from="3i" to="1o"/>
    <trip id="h340c1:1" type="default" depart="467" departPos="273.87" arrivalPos="78.53" arrivalSpeed="0.00" from="2o" to="3i"/>
    <trip id="carIn44:1" type="default" depart="467" departPos="243.67" arrivalPos="394.36" arrivalSpeed="0.00" from="3i" to="3i"/>
    <trip id="carIn63:1" type="default" depart="467" departPos="0.00" arrivalPos="398.65" arrivalSpeed="0.00" from="4o" to="4o"/>
    <trip id="h226c1:1" type="default" depart="468" departPos="410.66" arrivalPos="275.21" arrivalSpeed="0.00" from="3o" to="2o"/>
    <trip id="h143c1:1" type="default" depart="469" departPos="171.62" arrivalPos="198.02" arrivalSpeed="0.00" from="3i" to="2i"/>
    <trip id="carIn128:1" type="default" depart="469" departPos="243.67" arrivalPos="122.07" arrivalSpeed="0.00" from="3i" to="2i"/>
    <trip id="h133c1:1" type="default" depart="470" departPos="124.88" arrivalPos="479.34" arrivalSpeed="0.00" from="3i" to="4i"/>
    <trip id="h229c2:1" type="default" depart="470" departPos="277.59" arrivalPos="335.77" arrivalSpeed="0.00" from="3o" to="4o"/>
    <trip id="carIn71:1" type="default" depart="470" departPos="243.67" arrivalPos="484.34" arrivalSpeed="0.00" from="3i" to="2i"/>
    <trip id="carIn174:1" type="default" depart="471" departPos="0.00" arrivalPos="290.04" arrivalSpeed="0.00" from="1o" to="2o"/>
    <trip id="carIn189:1" type="default" depart="471" departPos="0.00" arrivalPos="366.43" arrivalSpeed="0.00" from="1o" to="2i"/>
    <trip id="h218c1:1" type="default" depart="472" departPos="329.83" arrivalPos="243.67" arrivalSpeed="0.00" from="3o" to="2i"/>
    <trip id="h19c1:1" type="default" depart="473" departPos="264.20" arrivalPos="243.67" arrivalSpeed="0.00" from="4i" to="3i"/>
    <trip id="h18c1:1" type="default" depart="474" departPos="100.73" arrivalPos="139.67" arrivalSpeed="0.00" from="4i" to="2i"/>
    <trip id="h295c1:1" type="default" depart="474" departPos="144.64" arrivalPos="379.22" arrivalSpeed="0.00" from="2i" to="3i"/>
    <trip id="carIn20:1" type="default" depart="474" departPos="243.67" arrivalPos="210.42" arrivalSpeed="0.00" from="3i" to="2o"/>
    <trip id="h234c1:1" type="default" depart="476" departPos="299.15" arrivalPos="238.21" arrivalSpeed="0.00" from="3o" to="1o"/>
    <trip id="h263c1:1" type="default" depart="476" departPos="126.82" arrivalPos="459.68" arrivalSpeed="0.00" from="2i" to="4i"/>
    <trip id="carIn142:1" type="default" depart="477" departPos="243.67" arrivalPos="80.98" arrivalSpeed="0.00" from="4i" to="1o"/>
    <trip id="h156c1:1" type="default" depart="478" departPos="194.70" arrivalPos="111.29" arrivalSpeed="0.00" from="3i" to="4i"/>
    <trip id="carIn143:1" type="default" depart="478" departPos="0.00" arrivalPos="0.00" arrivalSpeed="0.00" from="1o" to="3o"/>
    <trip id="h162c2:1" type="default" depart="481" departPos="106.83" arrivalPos="91.08" arrivalSpeed="0.00" from="3i" to="2i"/>
    <trip id="carIn69:1" type="default" depart="483" departPos="243.67" arrivalPos="243.67" arrivalSpeed="0.00" from="2i" to="3i"/>
    <trip id="h290c1:1" type="default" depart="485" departPos="299.64" arrivalPos="331.13" arrivalSpeed="0.00" from="2i" to="1o"/>
    <trip id="carIn186:1" type="default" depart="485" departPos="243.67" arrivalPos="30.89" arrivalSpeed="0.00" from="4i" to="2o"/>