<?xml version="1.0" encoding="UTF-8"?>

<!-- generated on 03/19/18 14:51:43 by SUMO activitygen Version 0.31.0
<?xml version="1.0" encoding="UTF-8"?>

<configuration xmlns:xsi="http://www.w3.org/2001/XMLSchema-instance" xsi:noNamespaceSchemaLocation="http://sumo.dlr.de/xsd/activitygenConfiguration.xsd">

    <input>
        <net-file value="cross.net.xml"/>
        <stat-file value="hello.stat.xml"/>
    </input>

    <output>
        <output-file value="cross5.trips.rou.xml"/>
    </output>

</configuration>
-->

<routes xmlns:xsi="http://www.w3.org/2001/XMLSchema-instance" xsi:noNamespaceSchemaLocation="http://sumo.dlr.de/xsd/routes_file.xsd">
    <vType id="default" vClass="passenger" color="red"/>
    <vType id="random" vClass="passenger" color="blue"/>
    <vType id="bus" vClass="bus" color="green"/>

    <trip id="h321c2:1" type="default" depart="0" departPos="333.73" arrivalPos="426.50" arrivalSpeed="0.00" from="3o" to="4o"/>
    <trip id="h240c1:1" type="default" depart="45" departPos="4.78" arrivalPos="129.26" arrivalSpeed="0.00" from="3i" to="4i"/>
    <trip id="carIn196:1" type="default" depart="90" departPos="243.67" arrivalPos="15.84" arrivalSpeed="0.00" from="3i" to="4i"/>
    <trip id="h192c1:1" type="default" depart="129" departPos="64.76" arrivalPos="243.67" arrivalSpeed="0.00" from="3i" to="4i"/>
    <trip id="carIn35:1" type="default" depart="133" departPos="243.67" arrivalPos="422.93" arrivalSpeed="0.00" from="1i" to="3o"/>
    <trip id="h77c1:1" type="default" depart="156" departPos="75.19" arrivalPos="142.23" arrivalSpeed="0.00" from="4i" to="3i"/>
    <trip id="carIn139:1" type="default" depart="162" departPos="0.00" arrivalPos="17.85" arrivalSpeed="0.00" from="4o" to="3i"/>
    <trip id="carIn71:1" type="default" depart="179" departPos="0.00" arrivalPos="484.34" arrivalSpeed="0.00" from="2o" to="3o"/>
    <trip id="h2c1:1" type="default" depart="180" departPos="247.07" arrivalPos="453.39" arrivalSpeed="0.00" from="4i" to="3o"/>
    <trip id="h215c1:1" type="default" depart="180" departPos="447.56" arrivalPos="429.54" arrivalSpeed="0.00" from="3i" to="2o"/>
    <trip id="h1c1:1" type="default" depart="192" departPos="254.50" arrivalPos="292.25" arrivalSpeed="0.00" from="4i" to="3i"/>
    <trip id="h484c1:1" type="default" depart="202" departPos="398.30" arrivalPos="314.45" arrivalSpeed="0.00" from="2o" to="3o"/>
    <trip id="carIn14:1" type="default" depart="212" departPos="243.67" arrivalPos="486.27" arrivalSpeed="0.00" from="1i" to="3o"/>
    <trip id="carIn141:1" type="default" depart="213" departPos="243.67" arrivalPos="463.18" arrivalSpeed="0.00" from="2i" to="4o"/>
    <trip id="carIn116:1" type="default" depart="224" departPos="243.67" arrivalPos="236.18" arrivalSpeed="0.00" from="2i" to="3i"/>
    <trip id="h12c1:1" type="default" depart="229" departPos="353.60" arrivalPos="373.16" arrivalSpeed="0.00" from="4i" to="3o"/>
    <trip id="h223c1:1" type="default" depart="229" departPos="304.62" arrivalPos="474.99" arrivalSpeed="0.00" from="3i" to="4o"/>
    <trip id="carIn153:1" type="default" depart="233" departPos="243.67" arrivalPos="450.19" arrivalSpeed="0.00" from="1i" to="4o"/>
    <trip id="h421c1:1" type="default" depart="241" departPos="414.43" arrivalPos="301.29" arrivalSpeed="0.00" from="2o" to="3o"/>
    <trip id="carIn122:1" type="default" depart="243" departPos="243.67" arrivalPos="133.43" arrivalSpeed="0.00" from="2i" to="3o"/>
    <trip id="h119c1:1" type="default" depart="247" departPos="451.61" arrivalPos="134.65" arrivalSpeed="0.00" from="4o" to="3i"/>
    <trip id="h279c2:1" type="default" depart="248" departPos="424.10" arrivalPos="333.45" arrivalSpeed="0.00" from="3o" to="4o"/>
    <trip id="h34c2:1" type="default" depart="253" departPos="4.75" arrivalPos="162.88" arrivalSpeed="0.00" from="4i" to="2i"/>
    <trip id="h182c1:1" type="default" depart="254" departPos="19.29" arrivalPos="27.62" arrivalSpeed="0.00" from="3i" to="2o"/>
    <trip id="carIn11:1" type="default" depart="257" departPos="0.00" arrivalPos="189.85" arrivalSpeed="0.00" from="3o" to="4o"/>
    <trip id="carIn169:1" type="default" depart="263" departPos="0.00" arrivalPos="201.26" arrivalSpeed="0.00" from="3o" to="4i"/>
    <trip id="h60c1:1" type="default" depart="265" departPos="1.61" arrivalPos="288.85" arrivalSpeed="0.00" from="4i" to="3i"/>
    <trip id="h196c1:1" type="default" depart="267" departPos="42.18" arrivalPos="5.70" arrivalSpeed="0.00" from="3i" to="4i"/>
    <trip id="h107c1:1" type="default" depart="268" departPos="435.09" arrivalPos="264.53" arrivalSpeed="0.00" from="4o" to="2o"/>
    <trip id="h66c1:1" type="default" depart="271" departPos="164.30" arrivalPos="26.57" arrivalSpeed="0.00" from="4i" to="3i"/>
    <trip id="h229c2:1" type="default" depart="272" departPos="277.59" arrivalPos="335.77" arrivalSpeed="0.00" from="3i" to="4o"/>
    <trip id="h407c1:1" type="default" depart="272" departPos="423.29" arrivalPos="83.40" arrivalSpeed="0.00" from="2o" to="3i"/>
    <trip id="carIn173:1" type="default" depart="272" departPos="243.67" arrivalPos="181.94" arrivalSpeed="0.00" from="3i" to="2i"/>
    <trip id="h145c1:1" type="default" depart="273" departPos="318.22" arrivalPos="293.04" arrivalSpeed="0.00" from="4o" to="3i"/>
    <trip id="carIn189:1" type="default" depart="274" departPos="243.67" arrivalPos="366.43" arrivalSpeed="0.00" from="2i" to="3o"/>
    <trip id="h45c1:1" type="default" depart="275" departPos="139.88" arrivalPos="79.79" arrivalSpeed="0.00" from="4i" to="3i"/>
    <trip id="carIn104:1" type="default" depart="278" departPos="0.00" arrivalPos="57.51" arrivalSpeed="0.00" from="3o" to="3i"/>
    <trip id="carIn128:1" type="default" depart="278" departPos="243.67" arrivalPos="122.07" arrivalSpeed="0.00" from="2i" to="3o"/>
    <trip id="h316c1:1" type="default" depart="279" departPos="104.71" arrivalPos="77.75" arrivalSpeed="0.00" from="3o" to="4i"/>
    <trip id="h64c1:1" type="default" depart="281" departPos="395.60" arrivalPos="10.39" arrivalSpeed="0.00" from="4i" to="3i"/>
    <trip id="h122c1:1" type="default" depart="281" departPos="432.81" arrivalPos="35.86" arrivalSpeed="0.00" from="4o" to="4o"/>
    <trip id="h194c1:1" type="default" depart="281" departPos="108.74" arrivalPos="321.91" arrivalSpeed="0.00" from="3i" to="2i"/>
    <trip id="h299c1:1" type="default" depart="281" departPos="372.54" arrivalPos="240.14" arrivalSpeed="0.00" from="3o" to="4i"/>
    <trip id="h44c1:1" type="default" depart="282" departPos="116.05" arrivalPos="6.62" arrivalSpeed="0.00" from="4i" to="2i"/>
    <trip id="h396c1:1" type="default" depart="283" departPos="307.25" arrivalPos="13.60" arrivalSpeed="0.00" from="2i" to="4i"/>
    <trip id="h65c1:1" type="default" depart="285" departPos="116.06" arrivalPos="334.43" arrivalSpeed="0.00" from="4i" to="3i"/>
    <trip id="carIn53:1" type="default" depart="285" departPos="0.00" arrivalPos="250.66" arrivalSpeed="0.00" from="1o" to="4i"/>
    <trip id="h166c2:1" type="default" depart="288" departPos="48.35" arrivalPos="446.62" arrivalSpeed="0.00" from="3i" to="2o"/>
    <trip id="carIn192:1" type="default" depart="288" departPos="243.67" arrivalPos="282.07" arrivalSpeed="0.00" from="3i" to="4o"/>
    <trip id="carIn200:1" type="default" depart="290" departPos="0.00" arrivalPos="427.15" arrivalSpeed="0.00" from="3o" to="4o"/>
    <trip id="carIn179:1" type="default" depart="293" departPos="0.00" arrivalPos="380.59" arrivalSpeed="0.00" from="4o" to="4o"/>
    <trip id="h211c1:1" type="default" depart="296" departPos="270.60" arrivalPos="353.17" arrivalSpeed="0.00" from="3i" to="2o"/>
    <trip id="h143c1:1" type="default" depart="300" departPos="171.62" arrivalPos="441.18" arrivalSpeed="0.00" from="4o" to="3o"/>
    <trip id="carIn147:1" type="default" depart="301" departPos="243.67" arrivalPos="368.26" arrivalSpeed="0.00" from="1i" to="4o"/>
    <trip id="h477c1:1" type="default" depart="302" departPos="473.19" arrivalPos="243.67" arrivalSpeed="0.00" from="2o" to="3i"/>
    <trip id="h8c1:1" type="default" depart="303" departPos="411.36" arrivalPos="207.27" arrivalSpeed="0.00" from="4i" to="3i"/>
    <trip id="h274c1:1" type="default" depart="309" departPos="200.85" arrivalPos="279.32" arrivalSpeed="0.00" from="3o" to="4i"/>
    <trip id="h230c1:1" type="default" depart="310" departPos="213.77" arrivalPos="50.77" arrivalSpeed="0.00" from="3i" to="2i"/>
    <trip id="h40c1:1" type="default" depart="311" departPos="189.18" arrivalPos="22.15" arrivalSpeed="0.00" from="4i" to="3i"/>
    <trip id="h186c2:1" type="default" depart="312" departPos="149.31" arrivalPos="450.94" arrivalSpeed="0.00" from="3i" to="4o"/>
    <trip id="carIn123:1" type="default" depart="313" departPos="243.67" arrivalPos="27.78" arrivalSpeed="0.00" from="1i" to="4i"/>
    <trip id="h193c2:1" type="default" depart="316" departPos="108.63" arrivalPos="0.00" arrivalSpeed="0.00" from="3i" to="1o"/>
    <trip id="h95c1:1" type="default" depart="317" departPos="352.87" arrivalPos="14.35" arrivalSpeed="0.00" from="4o" to="2i"/>
    <trip id="carIn56:1" type="default" depart="319" departPos="0.00" arrivalPos="243.67" arrivalSpeed="0.00" from="2o" to="1i"/>
    <trip id="carIn95:1" type="default" depart="319" departPos="243.67" arrivalPos="97.93" arrivalSpeed="0.00" from="4i" to="3i"/>
    <trip id="carIn30:1" type="default" depart="320" departPos="243.67" arrivalPos="147.93" arrivalSpeed="0.00" from="2i" to="4i"/>
    <trip id="h405c1:1" type="default" depart="323" departPos="206.08" arrivalPos="42.03" arrivalSpeed="0.00" from="2o" to="4i"/>
    <trip id="carIn90:1" type="default" depart="323" departPos="243.67" arrivalPos="159.85" arrivalSpeed="0.00" from="2i" to="3o"/>
    <trip id="h177c2:1" type="default" depart="325" departPos="107.09" arrivalPos="135.49" arrivalSpeed="0.00" from="3i" to="4i"/>
    <trip id="h163c1:1" type="default" depart="328" departPos="33.44" arrivalPos="346.07" arrivalSpeed="0.00" from="3i" to="4o"/>
    <trip id="carIn194:1" type="default" depart="329" departPos="0.00" arrivalPos="112.16" arrivalSpeed="0.00" from="1o" to="3i"/>
    <trip id="h12c2:1" type="default" depart="331" departPos="353.60" arrivalPos="125.01" arrivalSpeed="0.00" from="4i" to="2i"/>
    <trip id="carIn199:1" type="default" depart="337" departPos="243.67" arrivalPos="270.42" arrivalSpeed="0.00" from="2i" to="3o"/>
    <trip id="h210c2:1" type="default" depart="338" departPos="2.76" arrivalPos="224.77" arrivalSpeed="0.00" from="3i" to="2i"/>
    <trip id="h281c1:1" type="default" depart="339" departPos="407.72" arrivalPos="320.31" arrivalSpeed="0.00" from="3o" to="4i"/>
    <trip id="h294c1:1" type="default" depart="339" departPos="376.75" arrivalPos="173.39" arrivalSpeed="0.00" from="3o" to="4o"/>
    <trip id="h256c1:1" type="default" depart="341" departPos="326.08" arrivalPos="472.37" arrivalSpeed="0.00" from="3o" to="2o"/>
    <trip id="h481c1:1" type="default" depart="341" departPos="451.02" arrivalPos="484.87" arrivalSpeed="0.00" from="2o" to="4i"/>
    <trip id="h441c1:1" type="default" depart="343" departPos="431.72" arrivalPos="322.75" arrivalSpeed="0.00" from="2o" to="3o"/>
    <trip id="carIn132:1" type="default" depart="345" departPos="0.00" arrivalPos="198.50" arrivalSpeed="0.00" from="2o" to="2o"/>
    <trip id="carIn27:1" type="default" depart="348" departPos="243.67" arrivalPos="327.20" arrivalSpeed="0.00" from="3i" to="2o"/>
    <trip id="h450c1:1" type="default" depart="349" departPos="333.55" arrivalPos="267.13" arrivalSpeed="0.00" from="2o" to="3o"/>
    <trip id="h239c1:1" type="default" depart="351" departPos="167.03" arrivalPos="140.17" arrivalSpeed="0.00" from="3i" to="2o"/>
    <trip id="h229c1:1" type="default" depart="352" departPos="277.59" arrivalPos="237.30" arrivalSpeed="0.00" from="3i" to="4o"/>
    <trip id="h306c1:1" type="default" depart="354" departPos="386.37" arrivalPos="248.24" arrivalSpeed="0.00" from="3o" to="2i"/>
    <trip id="h339c1:1" type="default" depart="356" departPos="152.11" arrivalPos="484.04" arrivalSpeed="0.00" from="2i" to="4o"/>
    <trip id="carIn157:1" type="default" depart="356" departPos="0.00" arrivalPos="253.90" arrivalSpeed="0.00" from="4o" to="2i"/>
    <trip id="carIn88:1" type="default" depart="357" departPos="0.00" arrivalPos="406.28" arrivalSpeed="0.00" from="2o" to="4o"/>
    <trip id="carIn170:1" type="default" depart="358" departPos="243.67" arrivalPos="243.67" arrivalSpeed="0.00" from="3i" to="2i"/>
    <trip id="h19c1:1" type="default" depart="359" departPos="264.20" arrivalPos="243.67" arrivalSpeed="0.00" from="4i" to="3i"/>
    <trip id="h172c1:1" type="default" depart="360" departPos="244.31" arrivalPos="189.11" arrivalSpeed="0.00" from="3i" to="2i"/>
    <trip id="h290c1:1" type="default" depart="360" departPos="299.64" arrivalPos="331.13" arrivalSpeed="0.00" from="3o" to="2o"/>
    <trip id="h151c1:1" type="default" depart="361" departPos="423.48" arrivalPos="316.22" arrivalSpeed="0.00" from="4o" to="2i"/>
    <trip id="carIn33:1" type="default" depart="364" departPos="243.67" arrivalPos="40.16" arrivalSpeed="0.00" from="3i" to="4i"/>
    <trip id="h193c1:1" type="default" depart="365" departPos="108.63" arrivalPos="343.52" arrivalSpeed="0.00" from="3i" to="4o"/>
    <trip id="carIn80:1" type="default" depart="367" departPos="243.67" arrivalPos="395.66" arrivalSpeed="0.00" from="2i" to="2i"/>
    <trip id="carIn106:1" type="default" depart="368" departPos="0.00" arrivalPos="423.77" arrivalSpeed="0.00" from="2o" to="3o"/>
    <trip id="h319c1:1" type="default" depart="369" departPos="309.93" arrivalPos="403.40" arrivalSpeed="0.00" from="3o" to="4i"/>
    <trip id="carIn188:1" type="default" depart="369" departPos="243.67" arrivalPos="94.46" arrivalSpeed="0.00" from="4i" to="3i"/>
    <trip id="h105c1:1" type="default" depart="370" departPos="99.12" arrivalPos="268.50" arrivalSpeed="0.00" from="4o" to="3o"/>
    <trip id="h202c2:1" type="default" depart="375" departPos="82.52" arrivalPos="243.67" arrivalSpeed="0.00" from="3i" to="1i"/>
    <trip id="h210c1:1" type="default" depart="375" departPos="2.76" arrivalPos="255.95" arrivalSpeed="0.00" from="3i" to="2i"/>
    <trip id="h345c1:1" type="default" depart="375" departPos="420.07" arrivalPos="403.50" arrivalSpeed="0.00" from="2i" to="3o"/>
    <trip id="carIn143:1" type="default" depart="375" departPos="243.67" arrivalPos="0.00" arrivalSpeed="0.00" from="1i" to="3o"/>
    <trip id="carIn69:1" type="default" depart="377" departPos="0.00" arrivalPos="243.67" arrivalSpeed="0.00" from="2o" to="3i"/>
    <trip id="h427c1:1" type="default" depart="379" departPos="179.28" arrivalPos="301.11" arrivalSpeed="0.00" from="2o" to="3o"/>
    <trip id="h491c1:1" type="default" depart="379" departPos="28.44" arrivalPos="470.99" arrivalSpeed="0.00" from="1i" to="2o"/>
    <trip id="carIn124:1" type="default" depart="379" departPos="243.67" arrivalPos="58.84" arrivalSpeed="0.00" from="1i" to="3o"/>
    <trip id="h326c1:1" type="default" depart="382" departPos="141.35" arrivalPos="435.34" arrivalSpeed="0.00" from="2i" to="3o"/>
    <trip id="carIn64:1" type="default" depart="382" departPos="0.00" arrivalPos="479.34" arrivalSpeed="0.00" from="4o" to="4o"/>
    <trip id="h143c2:1" type="default" depart="383" departPos="171.62" arrivalPos="198.02" arrivalSpeed="0.00" from="4o" to="3o"/>
    <trip id="carIn175:1" type="default" depart="385" departPos="0.00" arrivalPos="50.42" arrivalSpeed="0.00" from="4o" to="3i"/>
    <trip id="h314c1:1" type="default" depart="387" departPos="187.98" arrivalPos="243.67" arrivalSpeed="0.00" from="3o" to="4i"/>
    <trip id="h384c1:1" type="default" depart="389" departPos="323.21" arrivalPos="56.60" arrivalSpeed="0.00" from="2i" to="3i"/>
    <trip id="carIn61:1" type="default" depart="389" departPos="243.67" arrivalPos="407.38" arrivalSpeed="0.00" from="1i" to="3i"/>
    <trip id="carIn99:1" type="default" depart="389" departPos="243.67" arrivalPos="43.50" arrivalSpeed="0.00" from="4i" to="4i"/>
    <trip id="carIn102:1" type="default" depart="389" departPos="243.67" arrivalPos="483.82" arrivalSpeed="0.00" from="3i" to="2i"/>
    <trip id="h135c1:1" type="default" depart="391" departPos="121.63" arrivalPos="85.77" arrivalSpeed="0.00" from="4o" to="3i"/>
    <trip id="carIn94:1" type="default" depart="391" departPos="0.00" arrivalPos="425.06" arrivalSpeed="0.00" from="3o" to="2o"/>
    <trip id="h199c1:1" type="default" depart="392" departPos="43.39" arrivalPos="477.70" arrivalSpeed="0.00" from="3i" to="2i"/>
    <trip id="carIn66:1" type="default" depart="392" departPos="0.00" arrivalPos="90.01" arrivalSpeed="0.00" from="3o" to="2o"/>
    <trip id="carIn184:1" type="default" depart="394" departPos="0.00" arrivalPos="413.67" arrivalSpeed="0.00" from="3o" to="2o"/>
    <trip id="h368c1:1" type="default" depart="396" departPos="96.83" arrivalPos="30.74" arrivalSpeed="0.00" from="2i" to="3o"/>
    <trip id="carIn62:1" type="default" depart="397" departPos="0.00" arrivalPos="388.90" arrivalSpeed="0.00" from="1o" to="4o"/>
    <trip id="carIn76:1" type="default" depart="398" departPos="0.00" arrivalPos="184.94" arrivalSpeed="0.00" from="2o" to="3i"/>
    <trip id="carIn117:1" type="default" depart="398" departPos="0.00" arrivalPos="131.37" arrivalSpeed="0.00" from="2o" to="2i"/>
    <trip id="carIn148:1" type="default" depart="398" departPos="243.67" arrivalPos="289.05" arrivalSpeed="0.00" from="2i" to="3i"/>
    <trip id="h186c1:1" type="default" depart="403" departPos="149.31" arrivalPos="366.31" arrivalSpeed="0.00" from="3i" to="2o"/>
    <trip id="h315c1:1" type="default" depart="412" departPos="329.20" arrivalPos="243.67" arrivalSpeed="0.00" from="3o" to="1i"/>
    <trip id="h422c1:1" type="default" depart="412" departPos="472.52" arrivalPos="127.80" arrivalSpeed="0.00" from="2o" to="3i"/>
    <trip id="carIn100:1" type="default" depart="412" departPos="0.00" arrivalPos="243.67" arrivalSpeed="0.00" from="4o" to="4i"/>
    <trip id="carIn49:1" type="default" depart="413" departPos="243.67" arrivalPos="451.67" arrivalSpeed="0.00" from="2i" to="2i"/>
    <trip id="h34c1:1" type="default" depart="414" departPos="4.75" arrivalPos="409.01" arrivalSpeed="0.00" from="4i" to="2i"/>
    <trip id="carIn84:1" type="default" depart="416" departPos="243.67" arrivalPos="461.67" arrivalSpeed="0.00" from="4i" to="4i"/>
    <trip id="carIn9:1" type="default" depart="418" departPos="243.67" arrivalPos="39.62" arrivalSpeed="0.00" from="2i" to="3o"/>
    <trip id="carIn1:1" type="default" depart="419" departPos="243.67" arrivalPos="8.52" arrivalSpeed="0.00" from="3i" to="3i"/>
    <trip id="h296c1:1" type="default" depart="421" departPos="270.95" arrivalPos="84.13" arrivalSpeed="0.00" from="3o" to="4o"/>
    <trip id="carIn127:1" type="default" depart="421" departPos="243.67" arrivalPos="351.11" arrivalSpeed="0.00" from="3i" to="2o"/>
    <trip id="carIn34:1" type="default" depart="422" departPos="243.67" arrivalPos="238.19" arrivalSpeed="0.00" from="2i" to="4i"/>
    <trip id="carIn150:1" type="default" depart="422" departPos="243.67" arrivalPos="239.71" arrivalSpeed="0.00" from="1i" to="3o"/>
    <trip id="h253c2:1" type="default" depart="424" departPos="443.87" arrivalPos="243.67" arrivalSpeed="0.00" from="3o" to="1i"/>
    <trip id="h377c1:1" type="default" depart="424" departPos="23.38" arrivalPos="135.59" arrivalSpeed="0.00" from="2i" to="3i"/>
    <trip id="carIn50:1" type="default" depart="424" departPos="243.67" arrivalPos="8.02" arrivalSpeed="0.00" from="3i" to="4i"/>
    <trip id="carIn197:1" type="default" depart="424" departPos="0.00" arrivalPos="405.26" arrivalSpeed="0.00" from="1o" to="3o"/>
    <trip id="h307c1:1" type="default" depart="426" departPos="226.85" arrivalPos="116.35" arrivalSpeed="0.00" from="3o" to="4o"/>
    <trip id="h374c1:1" type="default" depart="427" departPos="212.32" arrivalPos="4.40" arrivalSpeed="0.00" from="2i" to="3i"/>
    <trip id="carIn161:1" type="default" depart="428" departPos="243.67" arrivalPos="62.60" arrivalSpeed="0.00" from="3i" to="4i"/>
    <trip id="carIn119:1" type="default" depart="429" departPos="0.00" arrivalPos="445.39" arrivalSpeed="0.00" from="1o" to="2o"/>
    <trip id="h87c1:1" type="default" depart="430" departPos="2.69" arrivalPos="79.21" arrivalSpeed="0.00" from="4o" to="2i"/>
    <trip id="carIn75:1" type="default" depart="430" departPos="243.67" arrivalPos="188.86" arrivalSpeed="0.00" from="1i" to="3i"/>
    <trip id="h20c1:1" type="default" depart="432" departPos="159.63" arrivalPos="94.11" arrivalSpeed="0.00" from="4i" to="3o"/>
    <trip id="h300c1:1" type="default" depart="432" departPos="441.70" arrivalPos="234.56" arrivalSpeed="0.00" from="3o" to="4i"/>
    <trip id="h148c1:1" type="default" depart="436" departPos="478.81" arrivalPos="0.00" arrivalSpeed="0.00" from="4o" to="2o"/>
    <trip id="carIn145:1" type="default" depart="436" departPos="243.67" arrivalPos="130.03" arrivalSpeed="0.00" from="2i" to="3i"/>
    <trip id="h253c1:1" type="default" depart="437" departPos="443.87" arrivalPos="124.00" arrivalSpeed="0.00" from="3o" to="2i"/>
    <trip id="h272c1:1" type="default" depart="437" departPos="37.22" arrivalPos="450.63" arrivalSpeed="0.00" from="3o" to="4o"/>
    <trip id="h337c1:1" type="default" depart="438" departPos="214.90" arrivalPos="208.68" arrivalSpeed="0.00" from="2i" to="4o"/>
    <trip id="carIn180:1" type="default" depart="438" departPos="243.67" arrivalPos="90.19" arrivalSpeed="0.00" from="2i" to="3i"/>
    <trip id="h184c1:1" type="default" depart="441" departPos="201.71" arrivalPos="408.89" arrivalSpeed="0.00" from="3i" to="2o"/>
    <trip id="h136c1:1" type="default" depart="444" departPos="266.31" arrivalPos="186.83" arrivalSpeed="0.00" from="4o" to="3i"/>
    <trip id="h175c1:1" type="default" depart="444" departPos="456.04" arrivalPos="29.96" arrivalSpeed="0.00" from="3i" to="3i"/>
    <trip id="h208c1:1" type="default" depart="444" departPos="93.78" arrivalPos="460.34" arrivalSpeed="0.00" from="3i" to="4i"/>
    <trip id="h376c1:1" type="default" depart="445" departPos="129.05" arrivalPos="439.97" arrivalSpeed="0.00" from="2i" to="3o"/>
    <trip id="carIn115:1" type="default" depart="445" departPos="0.00" arrivalPos="286.70" arrivalSpeed="0.00" from="3o" to="3o"/>
    <trip id="h180c2:1" type="default" depart="446" departPos="122.33" arrivalPos="243.67" arrivalSpeed="0.00" from="3i" to="1i"/>
    <trip id="h180c1:1" type="default" depart="449" departPos="122.33" arrivalPos="243.67" arrivalSpeed="0.00" from="3i" to="1i"/>
    <trip id="h466c1:1" type="default" depart="451" departPos="275.47" arrivalPos="313.05" arrivalSpeed="0.00" from="2o" to="3o"/>
    <trip id="carIn183:1" type="default" depart="451" departPos="0.00" arrivalPos="447.42" arrivalSpeed="0.00" from="3o" to="4i"/>
    <trip id="h202c1:1" type="default" depart="452" departPos="82.52" arrivalPos="73.36" arrivalSpeed="0.00" from="3i" to="4i"/>
    <trip id="h200c1:1" type="default" depart="454" departPos="153.27" arrivalPos="376.70" arrivalSpeed="0.00" from="3i" to="2i"/>
    <trip id="carIn57:1" type="default" depart="454" departPos="243.67" arrivalPos="93.00" arrivalSpeed="0.00" from="2i" to="4i"/>
    <trip id="carIn47:1" type="default" depart="457" departPos="0.00" arrivalPos="0.00" arrivalSpeed="0.00" from="1o" to="3o"/>
    <trip id="carIn82:1" type="default" depart="459" departPos="243.67" arrivalPos="273.47" arrivalSpeed="0.00" from="1i" to="4o"/>
    <trip id="carIn113:1" type="default" depart="460" departPos="243.67" arrivalPos="36.37" arrivalSpeed="0.00" from="3i" to="2o"/>
    <trip id="h204c1:1" type="default" depart="461" departPos="412.91" arrivalPos="481.88" arrivalSpeed="0.00" from="3i" to="2o"/>
    <trip id="h386c1:1" type="default" depart="463" departPos="333.61" arrivalPos="437.49" arrivalSpeed="0.00" from="2i" to="3o"/>
    <trip id="carIn2:1" type="default" depart="463" departPos="0.00" arrivalPos="447.73" arrivalSpeed="0.00" from="1o" to="3i"/>
    <trip id="carIn96:1" type="default" depart="463" departPos="243.67" arrivalPos="349.98" arrivalSpeed="0.00" from="4i" to="4o"/>
    <trip id="carIn164:1" type="default" depart="465" departPos="243.67" arrivalPos="365.91" arrivalSpeed="0.00" from="1i" to="3o"/>
    <trip id="carIn186:1" type="default" depart="465" departPos="0.00" arrivalPos="30.89" arrivalSpeed="0.00" from="1o" to="2i"/>
    <trip id="h319c2:1" type="default" depart="466" departPos="309.93" arrivalPos="254.77" arrivalSpeed="0.00" from="3o" to="4o"/>
    <trip id="carIn112:1" type="default" depart="466" departPos="243.67" arrivalPos="63.10" arrivalSpeed="0.00" from="3i" to="4o"/>
    <trip id="carIn121:1" type="default" depart="466" departPos="0.00" arrivalPos="243.67" arrivalSpeed="0.00" from="1o" to="1i"/>
    <trip id="h27c1:1" type="default" depart="467" departPos="488.22" arrivalPos="435.51" arrivalSpeed="0.00" from="4i" to="3o"/>
    <trip id="h170c1:1" type="default" depart="470" departPos="73.76" arrivalPos="260.44" arrivalSpeed="0.00" from="3i" to="2o"/>
    <trip id="carIn42:1" type="default" depart="470" departPos="243.67" arrivalPos="139.14" arrivalSpeed="0.00" from="3i" to="4i"/>
    <trip id="h236c1:1" type="default" depart="472" departPos="15.38" arrivalPos="347.57" arrivalSpeed="0.00" from="3i" to="2i"/>
    <trip id="h299c2:1" type="default" depart="473" departPos="372.54" arrivalPos="169.20" arrivalSpeed="0.00" from="3o" to="2i"/>
    <trip id="carIn166:1" type="default" depart="473" departPos="0.00" arrivalPos="320.13" arrivalSpeed="0.00" from="1o" to="3o"/>
    <trip id="carIn81:1" type="default" depart="475" departPos="243.67" arrivalPos="11.40" arrivalSpeed="0.00" from="1i" to="4o"/>
    <trip id="carIn36:1" type="default" depart="476" departPos="243.67" arrivalPos="55.50" arrivalSpeed="0.00" from="2i" to="2i"/>
    <trip id="carIn138:1" type="default" depart="476" departPos="0.00" arrivalPos="17.73" arrivalSpeed="0.00" from="2o" to="3i"/>
    <trip id="h103c1:1" type="default" depart="478" departPos="111.33" arrivalPos="411.56" arrivalSpeed="0.00" from="4o" to="2o"/>
    <trip id="carIn21:1" type="default" depart="478" departPos="0.00" arrivalPos="383.95" arrivalSpeed="0.00" from="4o" to="2i"/>
    <trip id="h117c1:1" type="default" depart="480" departPos="310.01" arrivalPos="179.38" arrivalSpeed="0.00" from="4o" to="3o"/>
    <trip id="carIn89:1" type="default" depart="481" departPos="0.00" arrivalPos="147.75" arrivalSpeed="0.00" from="4o" to="4i"/>
    <trip id="h393c1:1" type="default" depart="482" departPos="23.45" arrivalPos="273.74" arrivalSpeed="0.00" from="2i" to="3o"/>
    <trip id="carIn181:1" type="default" depart="483" departPos="243.67" arrivalPos="375.67" arrivalSpeed="0.00" from="4i" to="4o"/>
    <trip id="h342c1:1" type="default" depart="484" departPos="122.87" arrivalPos="0.00" arrivalSpeed="0.00" from="2i" to="3o"/>
    <trip id="carIn130:1" type="default" depart="484" departPos="0.00" arrivalPos="424.47" arrivalSpeed="0.00" from="1o" to="4o"/>
    <trip id="carIn43:1" type="default" depart="485" departPos="243.67" arrivalPos="23.94" arrivalSpeed="0.00" from="2i" to="3o"/>
    <trip id="h313c1:1" type="default" depart="487" departPos="60.69" arrivalPos="432.91" arrivalSpeed="0.00" from="3o" to="3o"/>
    <trip id="carIn79:1" type="default" depart="487" departPos="243.67" arrivalPos="375.22" arrivalSpeed="0.00" from="1i" to="4o"/>
    <trip id="h279c1:1" type="default" depart="488" departPos="424.10" arrivalPos="1.78" arrivalSpeed="0.00" from="3o" to="1i"/>
    <trip id="carIn83:1" type="default" depart="488" departPos="243.67" arrivalPos="291.35" arrivalSpeed="0.00" from="3i" to="4i"/>
    <trip id="carIn160:1" type="default" depart="488" departPos="243.67" arrivalPos="322.11" arrivalSpeed="0.00" from="3i" to="2i"/>
    <trip id="h50c1:1" type="default" depart="489" departPos="120.70" arrivalPos="479.43" arrivalSpeed="0.00" from="4i" to="2i"/>
    <trip id="h291c1:1" type="default" depart="489" departPos="483.69" arrivalPos="18.51" arrivalSpeed="0.00" from="3o" to="1i"/>
    <trip id="h311c1:1" type="default" depart="489" departPos="256.45" arrivalPos="256.45" arrivalSpeed="0.00" from="3o" to="4o"/>
    <trip id="h368c2:1" type="default" depart="489" departPos="96.83" arrivalPos="61.27" arrivalSpeed="0.00" from="2i" to="4i"/>
    <trip id="h292c1:1" type="default" depart="491" departPos="457.02" arrivalPos="144.80" arrivalSpeed="0.00" from="3o" to="4i"/>
    <trip id="h22c1:1" type="default" depart="492" departPos="95.74" arrivalPos="6.58" arrivalSpeed="0.00" from="4i" to="2o"/>
    <trip id="carIn41:1" type="default" depart="492" departPos="0.00" arrivalPos="243.67" arrivalSpeed="0.00" from="1o" to="2i"/>
    <trip id="h248c1:1" type="default" depart="493" departPos="297.00" arrivalPos="483.98" arrivalSpeed="0.00" from="3o" to="2o"/>
    <trip id="carIn77:1" type="default" depart="494" departPos="0.00" arrivalPos="185.84" arrivalSpeed="0.00" from="3o" to="3o"/>
    <trip id="carIn25:1" type="default" depart="495" departPos="243.67" arrivalPos="353.03" arrivalSpeed="0.00" from="3i" to="2o"/>
    <trip id="h72c1:1" type="default" depart="496" departPos="38.53" arrivalPos="14.61" arrivalSpeed="0.00" from="4i" to="3o"/>
    <trip id="carIn4:1" type="default" depart="499" departPos="243.67" arrivalPos="36.37" arrivalSpeed="0.00" from="3i" to="1o"/>
    <trip id="carIn6:1" type="default" depart="499" departPos="243.67" arrivalPos="187.69" arrivalSpeed="0.00" from="2i" to="2o"/>
    <trip id="h435c1:1" type="default" depart="500" departPos="327.42" arrivalPos="238.69" arrivalSpeed="0.00" from="2o" to="3o"/>
    <trip id="carIn32:1" type="default" depart="500" departPos="243.67" arrivalPos="307.02" arrivalSpeed="0.00" from="4i" to="2o"/>
    <trip id="h310c1:1" type="default" depart="501" departPos="184.05" arrivalPos="374.92" arrivalSpeed="0.00" from="3o" to="2o"/>
    <trip id="carIn70:1" type="default" depart="501" departPos="0.00" arrivalPos="228.92" arrivalSpeed="0.00" from="4o" to="4i"/>