<?xml version="1.0" encoding="UTF-8"?>

<!-- generated on Fri Apr 27 22:36:02 2018 by SUMO duarouter Version 0.32.0
<?xml version="1.0" encoding="UTF-8"?>

<configuration xmlns:xsi="http://www.w3.org/2001/XMLSchema-instance" xsi:noNamespaceSchemaLocation="http://sumo.dlr.de/xsd/duarouterConfiguration.xsd">

    <input>
        <net-file value="osm.net.xml"/>
        <route-files value="osm.passenger.trips.xml"/>
    </input>

    <output>
        <output-file value="osm.passenger.rou.xml"/>
        <alternatives-output value="osm.passenger.rou.alt.xml"/>
    </output>

    <processing>
        <ignore-errors value="true"/>
    </processing>

    <time>
        <begin value="0"/>
        <end value="3600.0"/>
    </time>

    <report>
        <no-warnings value="true"/>
        <no-step-log value="true"/>
    </report>

</configuration>
-->

<routes xmlns:xsi="http://www.w3.org/2001/XMLSchema-instance" xsi:noNamespaceSchemaLocation="http://sumo.dlr.de/xsd/routes_file.xsd">
    <vType id="passenger" speedFactor="normc(1.00,0.10,0.20,2.00)" vClass="passenger"/>
    <vehicle id="veh0" type="passenger" depart="0.00" departLane="best">
        <route edges="19930608#28 19930608#29 -17821059#0 390634953#3 390634953#5 390634953#6 390634953#8 379738164#1 23704218#0 23704218#1 -124086106#0 -124086105"/>
    </vehicle>
    <vehicle id="veh4" type="passenger" depart="2.89" departLane="best">
        <route edges="-20140332 -124086106#5 -124086106#4"/>
    </vehicle>
    <vehicle id="veh6" type="passenger" depart="4.34" departLane="best">
        <route edges="-101521972 19930608#12 19930608#13 19930608#14 -15179098#6 -15179098#4 -15179098#3 -15179098#2 -15179098#1 -15179098#0 21232570#0 21232570#1 20135920#0 20135920#1 20135920#2 20135920#3 -20135920#3"/>
    </vehicle>
    <vehicle id="veh7" type="passenger" depart="5.06" departLane="best">
        <route edges="20116617#0 20116617#1 21232573#4 262898541#1 262898541#2 379738160#1 379738160#2 379738160#3 379738160#4 379738160#7 19930576"/>
    </vehicle>
    <vehicle id="veh12" type="passenger" depart="8.68" departLane="best">
        <route edges="70260003#0 70260003#1 70260003#3 70260003#4 70260003#5 70260003#6 70260003#7 -19930608#7 -19930608#6 -19930608#5 -19930608#4 -19930608#2 509257353 -509257350#1"/>
    </vehicle>
    <vehicle id="veh14" type="passenger" depart="10.12" departLane="best">
        <route edges="21232573#4 262898541#1 262898541#2 379738160#1 379738160#2 379738160#3 379738160#4 379738160#7 379738164#1 23704218#0 23704218#1 124086106#1 124086106#2 124086106#3 124086106#4 124086106#5 124086106#6 20118467"/>
    </vehicle>
    <vehicle id="veh16" type="passenger" depart="11.57" departLane="best">
        <route edges="-41405321#6 -41405321#5 -41405321#3 -41405321#2 -41405321#1 -41405321#0 70260003#6 70260003#7 -19930608#7 -19930608#6 -19930608#5 -19930608#4 -19930608#2 509257352"/>
    </vehicle>
    <vehicle id="veh17" type="passenger" depart="12.29" departLane="best">
        <route edges="-20136531#1 -20136531#0 -124086106#2 -124086106#1 -23704217 -23704218#0 -379738164#1 -379738164#0 -379738160#4 -180126049#1 -180126049#0 19930608#5 19930608#6 19930608#7 19930608#8 19930608#9 19930608#10 19930608#11 19930608#12 19930608#13"/>
    </vehicle>
    <vehicle id="veh18" type="passenger" depart="13.01" departLane="best">
        <route edges="21232573#0 21232573#2 21232573#3 21232573#4 262898541#1 262898541#2 379738160#1 379738160#2 379738160#3 -180126049#1 -180126049#0 -19930608#4 -19930608#2 509257353 509257354 20118480#3 20118480#4 20118480#5 20118480#6 20118480#7 20118480#8"/>
    </vehicle>
    <vehicle id="veh20" type="passenger" depart="14.46" departLane="best">
        <route edges="20124464 -124086106#3 -124086106#2 -124086106#1 -23704217 290089185 -390634953#6 -390634953#5 180126048#0 -180126048#0"/>
    </vehicle>
    <vehicle id="veh24" type="passenger" depart="17.35" departLane="best">
        <route edges="19930608#19 -19930608#19 -19930608#18 -19930608#17 -19930608#16 -19930608#15 -19930608#14 -19930608#13 -19930608#12 -19930608#11 -19930608#10 -19930608#9 -19930608#8 -70260003#7 -70262161#0"/>
    </vehicle>
    <vehicle id="veh25" type="passenger" depart="18.07" departLane="best">
        <route edges="-20124639#5 21224598 19930608#28 19930608#29 -17821059#0 390634953#3 390634953#5 390634953#6 390634953#8 -379738164#0 -379738160#4 -379738160#3 -379738160#2 -379738160#1 -379738160#0 -262898541#1 19930578#0 19930578#1 19930578#2 295873622#1 379738162"/>
    </vehicle>
    <vehicle id="veh26" type="passenger" depart="18.80" departLane="best">
        <route edges="20116617#0 20116617#1 21232573#4 262898541#1 262898541#2 379738160#1 379738160#2 379738160#3 379738160#4 379738160#7 379738164#1 23704218#0 23704218#1 124086106#1 124086106#2 124086106#3 124086106#4 124086106#5 124086106#6 20118467"/>
    </vehicle>
    <vehicle id="veh28" type="passenger" depart="20.24" departLane="best">
        <route edges="-19930608#22 -76536995#11 -76536995#10 -76536995#9 -76536995#8 -76536995#7 -76536995#6 -76536995#5 -76536995#4 -76536995#3 -76536995#2 -76536995#1 -76536995#0"/>
    </vehicle>
    <vehicle id="veh29" type="passenger" depart="20.96" departLane="best">
        <route edges="-509257352 -19930608#1 -19930608#0 19930590 15089733#5 17824973#0 17824973#1 180126046 379738160#7 379738164#1 23704218#0 23704218#1 20128721#0 20128721#1 20128721#2"/>
    </vehicle>
    <vehicle id="veh30" type="passenger" depart="21.69" departLane="best">
        <route edges="21232573#0 21232573#2 21232573#3 21232573#4 262898541#1 262898541#2 379738160#1 379738160#2 379738160#3 379738160#4 379738160#7 379738164#1 23704218#0 23704218#1 124086106#1 124086106#2 20136531#0 20136531#1"/>
    </vehicle>
    <vehicle id="veh31" type="passenger" depart="22.41" departLane="best">
        <route edges="-20123316#1 20128723 -20128721#0 -23704217 -23704218#0 -379738164#1 -379738164#0 -379738160#4 -180126049#1 -180126049#0 -19930608#4 -15089727#6 -15089727#5"/>
    </vehicle>
    <vehicle id="veh32" type="passenger" depart="23.13" departLane="best">
        <route edges="-20129449#3 -20129449#1 -20129449#0 413399527#3 413399527#4 413399527#5 413399527#6 413399528 21232570#0 21232570#1 21232570#2 21232570#3 21232570#4 21232570#5 21232570#6 21232570#7 21232570#8 21232570#9 21232570#10 21232570#11 262898541#1 -262898541#1"/>
    </vehicle>
    <vehicle id="veh33" type="passenger" depart="23.86" departLane="best">
        <route edges="-20118467 -124086106#6 -124086106#5 -124086106#4 -124086106#3 -124086106#2 -124086106#1 -23704217 -23704218#0 -379738164#1 379738164#1"/>
    </vehicle>
    <vehicle id="veh34" type="passenger" depart="24.58" departLane="best">
        <route edges="390634953#0 180904959#0 180904959#1 -19930608#25 -19930608#24 -19930608#23 -19930608#22 -19930608#21 -19930608#20 -19930608#19 -19930608#18 -19930608#17 -19930608#16 -19930608#15 -15179098#6 -15179098#4 -15179098#3 -15179098#2 -15179098#1 -15179098#0 -413399528 -413399527#6 -413399527#5 -413399527#4 -413399527#3 -413399527#2 -413399527#1 -413399527#0"/>
    </vehicle>
    <vehicle id="veh35" type="passenger" depart="25.30" departLane="best">
        <route edges="20116617#0 20116617#1 21232573#4 262898541#1 262898541#2 379738160#1 379738160#2 379738160#3 -180126049#1 -180126049#0 -19930608#4 -19930608#2 509257353 509257354 20118480#3 20118480#4 20118480#5 20118480#6 20118480#7 20118480#8 20118480#9 20118480#10 264212543#0 264212543#1 22873072#0 22873072#1 22873072#2 22873072#3 22873072#4 22873072#5 -19930601#1 19930608#18 19930608#19 19930608#20 19930608#21 -76536995#11 -76536995#10 -76536995#9 -76536995#8 -76536995#7 -76536995#6 -76536995#5 -76536995#4 -76536995#3 -76536995#2 -76536995#1 -76536995#0"/>
    </vehicle>
    <vehicle id="veh36" type="passenger" depart="26.03" departLane="best">
        <route edges="413399527#0 413399527#1 413399527#2 413399527#3 413399527#4 413399527#5 413399527#6 413399528 21232570#0 21232570#1 21232570#2 21232570#3 21232570#4 21232570#5 21232570#6 21232570#7 21232570#8 21232570#9 21232570#10 -40597179#2 -40597179#1 -40597179#0 40597178#8 40597178#9 41163311 41163310#2 41163309 41163298#0 41163298#1 41163298#2 41163298#3 379738160#1 379738160#2 379738160#3 379738160#4 379738160#7 379738164#1 23704218#0 23704218#1 20128721#0 20128721#1 -20116719 124086104#1"/>
    </vehicle>
    <vehicle id="veh37" type="passenger" depart="26.75" departLane="best">
        <route edges="-20124639#14 -20124639#13 -20124639#12 -20124639#11 -20124639#9 -20124639#8 -20124639#7 -20124639#6 -20124639#5 21224598 19930608#28 19930608#29 -17821059#0 390634953#3 390634953#5 390634953#6 390634953#8 -379738164#0 -379738160#4 -379738160#3 -379738160#2 -379738160#1 -379738160#0 -262898541#1 -262898541#0 -21232573#3 -21232573#2 -21232573#0"/>
    </vehicle>
    <vehicle id="veh38" type="passenger" depart="27.47" departLane="best">
        <route edges="-70260003#3 -70260003#1 -70260003#0 -21232570#7 -21232570#6 -21232570#5 -21232570#4 -21232570#3 -21232570#2 -21232570#1 -21232570#0 15179098#0 15179098#1 15179098#2 15179098#3 15179098#4 15179098#6 19930608#15 19930608#16 19930608#17 19930608#18 19930608#19 19930608#20 19930608#21 19930608#22 19930608#23 19930608#24 19930608#25 -180904959#1 23603527 -23603527"/>
    </vehicle>
    <vehicle id="veh39" type="passenger" depart="28.19" departLane="best">
        <route edges="124086106#0 -23704217 -23704218#0 -379738164#1 -379738164#0 -379738160#4 -180126049#1 -180126049#0 19930608#5 19930608#6 19930608#7 19930608#8 19930608#9 19930608#10 101274695#1 101274695#2 101274695#3 101274695#4 101274695#5 101274695#6 101274695#7 101274695#8 -272931651#1 272931651#1"/>
    </vehicle>
    <vehicle id="veh41" type="passenger" depart="29.64" departLane="best">
        <route edges="76536995#3 76536995#4 76536995#5 76536995#6 76536995#7 76536995#8 76536995#9 76536995#10 76536995#11 -19930608#21 -19930608#20 -19930608#19 -19930608#18 19930601#1 -22873072#5 -22873072#4 -22873072#3 -22873072#2 -22873072#1 -22873072#0 -264212543#1 -264212543#0 -20118480#10 -20118480#9 -20118480#8 -20118480#7 -20118480#6 -20118480#5 -20118480#4 -20118480#3 -20118480#2 -20118480#1 -20118480#0 24942157#1 21224608#0 21224608#1 15089733#3 15089733#4"/>
    </vehicle>
    <vehicle id="veh44" type="passenger" depart="31.81" departLane="best">
        <route edges="20139428 -20136531#0 -124086106#2 -124086106#1 -23704217 -23704218#0 -379738164#1 -379738164#0 22372826#0 22372826#1 22372826#2 22372826#3 22372826#4 15089733#7 15089733#8 15089733#1 21224606#0 21224606#1 24942157#3 24942159 101274690#1 101274690#2 101386401#1 101386401#2"/>
    </vehicle>
    <vehicle id="veh45" type="passenger" depart="32.53" departLane="best">
        <route edges="-124086104#1 20116719 -20128721#1 -20128721#0 -23704217 290089185 -390634953#6 -390634953#5 -390634953#3 17821059#0 -19930608#29 -19930608#28 -21224598 -20124639#4 -20124639#3 -20124639#2 -20124639#1 101081088#4 101081088#5 101081088#6 101081088#7 -76536995#3 -76536995#2 -76536995#1 -76536995#0"/>
    </vehicle>
    <vehicle id="veh46" type="passenger" depart="33.25" departLane="best">
        <route edges="76536995#1 76536995#2 76536995#3 76536995#4 76536995#5 76536995#6 76536995#7 76536995#8 76536995#9 76536995#10 76536995#11 -19930608#21 -19930608#20 -19930608#19 -19930608#18 -19930608#17 -19930608#16 -19930608#15 -19930608#14 -19930608#13 -19930608#12 -19930608#11 101274695#1 180904976"/>
    </vehicle>
    <vehicle id="veh47" type="passenger" depart="33.98" departLane="best">
        <route edges="-101386401#2 -101386401#1 101274690#3 101274690#4 101274690#5 101274690#6 101274690#7 101274690#8 24942157#5 24942157#1 21224608#0 21224608#1 15089733#3 19930595 19930608#0 19930608#1 19930608#2 19930608#4 19930608#5 19930608#6 19930608#7 19930608#8 19930608#9 19930608#10 19930608#11 19930608#12 19930608#13 19930608#14 -15179098#6 -15179098#4 -15179098#3 -15179098#2 -15179098#1 -15179098#0 -413399528 -413399527#6 -413399527#5 -413399527#4 20131567#0 20131567#1 20131567#2"/>
    </vehicle>
    <vehicle id="veh48" type="passenger" depart="34.70" departLane="best">
        <route edges="20118480#4 -20118480#4 -20118480#3 -20118480#2 -20118480#1 -20118480#0 24942157#1 21224608#0 21224608#1 15089733#3 15089733#4 15089733#5 17824973#0 17824973#1 180126046 379738160#7 19930576"/>
    </vehicle>
    <vehicle id="veh49" type="passenger" depart="35.42" departLane="best">
        <route edges="-20124639#5 20124639#5 20124639#6 20124639#7 20124639#8 20124639#9 20124639#11 20124639#12 20124639#13 20124639#14"/>
    </vehicle>
    <vehicle id="veh51" type="passenger" depart="36.87" departLane="best">
        <route edges="-23958820#1 -23958820#0 15089727#6 19930608#4 180126049#0 180126049#1 -379738160#3 -379738160#2 -379738160#1 -41163298#3 -41163298#2 41163302#0"/>
    </vehicle>
    <vehicle id="veh52" type="passenger" depart="37.59" departLane="best">
        <route edges="390634953#0 180904959#0 23603527 359856467 -23603528#1"/>
    </vehicle>
    <vehicle id="veh53" type="passenger" depart="38.31" departLane="best">
        <route edges="-379738162 -295873622#1 -295873622#0 -19930578#1 -19930578#0 -21232570#11 -21232570#10 -21232570#9 -21232570#8 -21232570#7 -21232570#6 -21232570#5 -21232570#4 -21232570#3 -21232570#2 -21232570#1 -21232570#0 -413399528 -413399527#6 -413399527#5 -413399527#4 -413399527#3 20129449#0 -20129449#0"/>
    </vehicle>
    <vehicle id="veh54" type="passenger" depart="39.04" departLane="best">
        <route edges="413399527#0 413399527#1 413399527#2 413399527#3 413399527#4 413399527#5 413399527#6 413399528 15179098#0 15179098#1 15179098#2 15179098#3 15179098#4 15179098#6 -19930608#14 -19930608#13 -19930608#12 -19930608#11 -19930608#10 -19930608#9 -19930608#8 -19930608#7 15089727#1 15089727#2 15089727#3 15089727#4 15089727#5 23958820#0 23958820#1"/>
    </vehicle>
    <vehicle id="veh55" type="passenger" depart="39.76" departLane="best">
        <route edges="-20128721#2 -20128721#1 -20128721#0 -23704217 290089185 -390634953#6 -390634953#5 -390634953#3 17821059#0 -19930608#29 -19930608#28 -21224598 20124639#5 20124639#6 20124639#7 20124639#8 20124639#9 20124639#11 20124639#12"/>
    </vehicle>
    <vehicle id="veh59" type="passenger" depart="42.65" departLane="best">
        <route edges="-101081088#1 -101081088#0 -19930608#22 -19930608#21 -19930608#20 -19930608#19 -19930608#18 -19930608#17 -19930608#16 -19930608#15 -15179098#6 -15179098#4 -15179098#3 -15179098#2 -15179098#1 -15179098#0 -413399528 -413399527#6 -413399527#5 -413399527#4 -413399527#3 -413399527#2"/>
    </vehicle>
    <vehicle id="veh60" type="passenger" depart="43.38" departLane="best">
        <route edges="-101386401#2 -101386401#1 101274690#3 101274690#4 101274690#5 101274690#6 101274690#7 101274690#8 24942157#5 24942157#1 21224608#0 21224608#1 15089733#3 15089733#4 15089733#5 17824973#0 17824973#1 180126046 -379738160#4 -379738160#3 -379738160#2 -379738160#1 -379738160#0 -262898541#1 19930578#0 19930578#1 19930578#2 295873622#1 379738162"/>
    </vehicle>
    <vehicle id="veh61" type="passenger" depart="44.10" departLane="best">
        <route edges="390634953#0 390634953#1 390634953#2 390634953#3 390634953#5 390634953#6 390634953#8 379738164#1 23704218#0 23704218#1 124086106#1 124086106#2 124086106#3 124086106#4 124086106#5 20140332"/>
    </vehicle>
    <vehicle id="veh62" type="passenger" depart="44.82" departLane="best">
        <route edges="-20129449#1 -20129449#0 413399527#3 413399527#4 413399527#5 413399527#6 413399528 15179098#0 15179098#1 15179098#2 15179098#3 15179098#4 15179098#6 -19930608#14 -19930608#13 -19930608#12 -19930608#11 -19930608#10 -19930608#9 -19930608#8 -19930608#7 -19930608#6 -19930608#5 -19930608#4 -19930608#2 -19930608#1 -19930608#0 19930590 15089733#5 15089733#6 15089733#7 19930593#0 19930593#1 -413954039 -413954041#1 -413954041#0 -413954037 -413954038#1 -413954038#0 -19930608#31 -19930608#30"/>
    </vehicle>
    <vehicle id="veh63" type="passenger" depart="45.54" departLane="best">
        <route edges="390634953#0 390634953#1 390634953#2 390634953#3 390634953#5 390634953#6 390634953#8 -379738164#0 -379738160#4 -379738160#3 -379738160#2 -379738160#1 -41163298#3 -41163298#2 -41163298#1 -41163298#0 41163312 41163310#4 41163308 -40597178#9 -40597178#8 -40597178#7 -40597178#6 -40597178#5 40597178#5"/>
    </vehicle>
    <vehicle id="veh65" type="passenger" depart="46.99" departLane="best">
        <route edges="-124086106#7 -124086106#6 -124086106#5 -124086106#4 -124086106#3 -124086106#2 -124086106#1 -23704217 -23704218#0 -379738164#1 -379738164#0 -379738160#4 -379738160#3 -379738160#2 -379738160#1 -41163298#3 -41163298#2 -41163298#1 -41163298#0 41163312 41163310#4 41163308 -40597178#9 -40597178#8 40597179#0 40597179#1 40597179#2 -21232570#10 -21232570#9 -21232570#8 -21232570#7 -21232570#6 -21232570#5 -21232570#4 -21232570#3 -21232570#2 -21232570#1 -21232570#0 -413399528 -413399527#6 -413399527#5 -413399527#4 -413399527#3 -413399527#2 -413399527#1 20135583"/>
    </vehicle>
    <vehicle id="veh67" type="passenger" depart="48.44" departLane="best">
        <route edges="-351667209 20116617#1 21232573#4 262898541#1 262898541#2 379738160#1 379738160#2 379738160#3 379738160#4 22372826#0 22372826#1 22372826#2 22372826#3 22372826#4 15089733#7 15089733#8 15089733#1 15089733#2 15089733#3 19930595"/>
    </vehicle>
    <vehicle id="veh68" type="passenger" depart="49.16" departLane="best">
        <route edges="-20124639#14 -20124639#13 -20124639#12 -20124639#11 -20124639#9 -20124639#8 -20124639#7 -20124639#6 -20124639#5 21224598 19930608#28 19930608#29 19930608#30 19930608#31 413954038#0 413954038#1 413954037 413954041#0 413954041#1 413954039 19930592#0 19930592#1 15089733#1 15089733#2 15089733#3 19930595 19930608#0 19930608#1 19930608#2 -15089727#6 23958820#0 23958820#1"/>
    </vehicle>
    <vehicle id="veh69" type="passenger" depart="49.88" departLane="best">
        <route edges="-20140332 -124086106#5 -124086106#4 -124086106#3 20136531#0 -20139428"/>
    </vehicle>
    <vehicle id="veh70" type="passenger" depart="50.60" departLane="best">
        <route edges="-509257350#1 509257350#1 -509257353 19930608#2 19930608#4 19930608#5 19930608#6 19930608#7 19930608#8 19930608#9 19930608#10 19930608#11 19930608#12 19930608#13 19930608#14 -15179098#6 -15179098#4 -15179098#3 -15179098#2 -15179098#1 -15179098#0 -413399528 -413399527#6 -413399527#5 -413399527#4 20131567#0 20131567#1 20131567#2"/>
    </vehicle>
    <vehicle id="veh72" type="passenger" depart="52.05" departLane="best">
        <route edges="-21232570#0 15179098#0 15179098#1 15179098#2 15179098#3 15179098#4 15179098#6 -19930608#14 -19930608#13 -19930608#12 -19930608#11 -19930608#10 -19930608#9 -19930608#8 -19930608#7 -19930608#6 -19930608#5 -19930608#4 -19930608#2 -19930608#1 -19930608#0 19930590 15089733#5 15089733#6 15089733#7 19930593#0 19930593#1 -413954039 -17825832#8 -17825832#7 -17825832#6 -17825832#5 -17825832#4 -17825832#3 17825832#3"/>
    </vehicle>
    <vehicle id="veh76" type="passenger" depart="54.94" departLane="best">
        <route edges="-124086106#7 -124086106#6 -124086106#5 -124086106#4 -124086106#3 -124086106#2 -124086106#1 20128721#0 -20128723 20123316#1"/>
    </vehicle>
    <vehicle id="veh77" type="passenger" depart="55.67" departLane="best">
        <route edges="-20123316#1 20128723 -20128721#0 -23704217 -23704218#0 -379738164#1 -379738164#0 -379738160#4 -379738160#3 -379738160#2 -379738160#1 -379738160#0 -262898541#1 -262898541#0 -20116617#1 351667209"/>
    </vehicle>
    <vehicle id="veh78" type="passenger" depart="56.39" departLane="best">
        <route edges="24942157#1 21224608#0 21224608#1 15089733#3 15089733#4 15089733#5 17824973#0 17824973#1 180126046 -379738160#4 -379738160#3 -379738160#2 -379738160#1 -379738160#0 -262898541#1 -262898541#0 -20116617#1 -20116617#0"/>
    </vehicle>
    <vehicle id="veh79" type="passenger" depart="57.11" departLane="best">
        <route edges="-20123316#1 20128723 -20128721#0 124086106#1 124086106#2 124086106#3 124086106#4 20128629"/>
    </vehicle>
    <vehicle id="veh80" type="passenger" depart="57.83" departLane="best">
        <route edges="-20118467 -124086106#6 -124086106#5 -124086106#4 -20124464"/>
    </vehicle>
    <vehicle id="veh82" type="passenger" depart="59.28" departLane="best">
        <route edges="-273030038#0 273030038#0 -19930608#12 -19930608#11 -19930608#10 -19930608#9 -19930608#8 -19930608#7 -19930608#6 -19930608#5 180126049#0 180126049#1 379738160#4 379738160#7 379738164#1 23704218#0 23704218#1 124086106#1 124086106#2 20136531#0 20136531#1"/>
    </vehicle>
    <vehicle id="veh85" type="passenger" depart="61.45" departLane="best">
        <route edges="-20140332 -124086106#5 -124086106#4 -124086106#3 -124086106#2 -124086106#1 20128721#0 20128721#1 -20116719 124086104#1"/>
    </vehicle>
    <vehicle id="veh87" type="passenger" depart="62.89" departLane="best">
        <route edges="76536995#0 76536995#1 76536995#2 76536995#3 76536995#4 76536995#5 76536995#6 76536995#7 76536995#8 76536995#9 76536995#10 76536995#11 -19930608#21 -19930608#20 -19930608#19 -19930608#18 19930601#1 -22873072#5 -22873072#4 -22873072#3 -22873072#2 -22873072#1 -22873072#0 -264212543#1 -264212543#0 -20118480#10 -20118480#9 -20118480#8 -20118480#7 -20118480#6 -20118480#5 -20118480#4"/>
    </vehicle>
    <vehicle id="veh88" type="passenger" depart="63.62" departLane="best">
        <route edges="-20137823 -295873622#1 -295873622#0 -19930578#1 -19930578#0 262898541#1 262898541#2 379738160#1 379738160#2 379738160#3 -180126049#1 -180126049#0 -19930608#4 -19930608#2 509257353 509257354 20118480#3 20118480#4 20118480#5 20118480#6 20118480#7 20118480#8 20118480#9 20118480#10 264212543#0 264212543#1 22873072#0 22873072#1 22873072#2 22873072#3 22873072#4 22873072#5 -19930601#1 19930608#18 19930608#19 19930608#20 19930608#21 -76536995#11 -76536995#10 -76536995#9 -76536995#8 -101473342#1 -101473342#0 -101473343#1 -101473343#0 -512614095#4 -512614095#3 -512614095#2 -512614095#1 -512614095#0"/>
    </vehicle>
    <vehicle id="veh89" type="passenger" depart="64.34" departLane="best">
        <route edges="262898541#1 -262898541#1 -262898541#0 -21232573#3 -21232573#2 -21232573#0"/>
    </vehicle>
    <vehicle id="veh91" type="passenger" depart="65.79" departLane="best">
        <route edges="-20140332 -124086106#5 -124086106#4 -124086106#3 -124086106#2 -124086106#1 -23704217 290089185 -390634953#6 -390634953#5 -390634953#3 -390634953#2 -390634953#1 -390634953#0"/>
    </vehicle>
    <vehicle id="veh92" type="passenger" depart="66.51" departLane="best">
        <route edges="-20124639#14 -20124639#13 -20124639#12 -20124639#11 -20124639#9 -20124639#8 -20124639#7 -20124639#6 -20124639#5 21224598 -19930608#27 -19930608#26 -180904959#1 23603527 359856467"/>
    </vehicle>
    <vehicle id="veh93" type="passenger" depart="67.23" departLane="best">
        <route edges="-22873068#0 22873065#2 22873065#3 22873065#4 -19930608#18 19930601#1 -22873072#5 -22873072#4 -22873072#3 -22873072#2 -22873072#1 -22873072#0 -264212543#1 -264212543#0 -20118480#10 -20118480#9 -20118480#8 -20118480#7 -20118480#6 -20118480#5 -20118480#4 -20118480#3 -509257354 -509257353 19930608#2 -15089727#6 -15089727#5 -15089727#4 -15089727#3 -15089727#2 23958814#1 23958814#3 23958814#5 23958814#8 23958814#9"/>
    </vehicle>
    <vehicle id="veh94" type="passenger" depart="67.95" departLane="best">
        <route edges="-509257352 19930608#2 19930608#4 19930608#5 19930608#6 19930608#7 19930608#8 19930608#9 19930608#10 -19930608#10"/>
    </vehicle>
    <vehicle id="veh95" type="passenger" depart="68.68" departLane="best">
        <route edges="76536995#7 -76536995#7 -76536995#6 -76536995#5 -76536995#4 -101081088#7 -101081088#6 -101081088#5 -101081088#4 20124639#1 20124639#2 20124639#3 20124639#4 21224598 19930608#28 19930608#29 -17821059#0 390634953#3 390634953#5 390634953#6 390634953#8 379738164#1 23704218#0 23704218#1 124086106#1 124086106#2 124086106#3 124086106#4 124086106#5 20140332"/>
    </vehicle>
    <vehicle id="veh96" type="passenger" depart="69.40" departLane="best">
        <route edges="70262161#0 -70260003#6 -70260003#5 -70260003#4 -70260003#3 -70260003#1 -70260003#0 21232570#8 21232570#9 21232570#10 21232570#11 19930578#0 19930578#1 19930578#2 295873622#1 379738162"/>
    </vehicle>
    <vehicle id="veh98" type="passenger" depart="70.85" departLane="best">
        <route edges="-351667209 20116617#1 21232573#4 262898541#1 262898541#2 379738160#1 379738160#2 379738160#3 379738160#4 379738160#7 379738164#1 23704218#0 23704218#1 124086106#1 124086106#2 20136531#0 -20139428"/>
    </vehicle>
    <vehicle id="veh99" type="passenger" depart="71.57" departLane="best">
        <route edges="-20136881 -20129449#1 -20129449#0 413399527#3 413399527#4 413399527#5 413399527#6 413399528 15179098#0 15179098#1 15179098#2 15179098#3 15179098#4 15179098#6 -19930608#14 -19930608#13 -19930608#12 -19930608#11 -19930608#10 -19930608#9 -19930608#8 -19930608#7 -19930608#6 -19930608#5 -19930608#4"/>
    </vehicle>
    <vehicle id="veh100" type="passenger" depart="72.29" departLane="best">
        <route edges="-20136531#1 -20136531#0 -124086106#2 -124086106#1 -23704217 -23704218#0 -379738164#1 -379738164#0 22372826#0 22372826#1 22372826#2 22372826#3 22372826#4 15089733#7 15089733#8 15089733#1 15089733#2 15089733#3 19930595 19930608#0 19930608#1 509257352"/>
    </vehicle>
    <vehicle id="veh101" type="passenger" depart="73.02" departLane="best">
        <route edges="-20124639#14 -20124639#13 -20124639#12 -20124639#11 -20124639#9 -20124639#8 -20124639#7 -20124639#6 -20124639#5 21224598 19930608#28 19930608#29 -17821059#0 390634953#3 390634953#5 390634953#6 390634953#8 379738164#1 23704218#0 23704218#1 124086106#1 124086106#2 20136531#0 20136531#1"/>
    </vehicle>
    <vehicle id="veh102" type="passenger" depart="73.74" departLane="best">
        <route edges="-23958820#1 -23958820#0 15089727#6 -19930608#2 -19930608#1 -19930608#0 19930590 15089733#5 15089733#6 15089733#7 15089733#8 15089733#1 21224606#0 21224606#1 24942157#3 24942159 101274690#1 101274690#2 101386401#1 101386401#2"/>
    </vehicle>
    <vehicle id="veh103" type="passenger" depart="74.46" departLane="best">
        <route edges="70260003#0 70260003#1 70260003#3 70260003#4 70260003#5 70260003#6 70260003#7"/>
    </vehicle>
    <vehicle id="veh104" type="passenger" depart="75.18" departLane="best">
        <route edges="-509257352 19930608#2 19930608#4 19930608#5 19930608#6 19930608#7 19930608#8 19930608#9 19930608#10 19930608#11 19930608#12 19930608#13 19930608#14 -15179098#6 -15179098#4 -15179098#3 -15179098#2 -15179098#1 -15179098#0 -413399528 -413399527#6 -413399527#5 -413399527#4 20131567#0 20131567#1 20131567#2"/>
    </vehicle>
    <vehicle id="veh105" type="passenger" depart="75.91" departLane="best">
        <route edges="-19930576 -379738164#0 -379738160#4 -379738160#3 -379738160#2 -379738160#1 -41163298#3 -41163298#2 -41163298#1 -41163298#0 41163312 41163310#4 41163308 -40597178#9 -40597178#8 -40597178#7 -40597178#6 -40597178#5"/>
    </vehicle>
    <vehicle id="veh109" type="passenger" depart="78.80" departLane="best">
        <route edges="-379738162 -295873622#1 -295873622#0 -19930578#1 -19930578#0 262898541#1 262898541#2 379738160#1 379738160#2 379738160#3 -180126049#1 -180126049#0 -19930608#4 -19930608#2 509257353 509257354 20118480#3 20118480#4 20118480#5 20118480#6 20118480#7 20118480#8 20118480#9 20118480#10 264212543#0 264212543#1 22873072#0 22873072#1 22873072#2 22873072#3 22873072#4 22873072#5 304166215 22873065#1"/>
    </vehicle>
    <vehicle id="veh110" type="passenger" depart="79.52" departLane="best">
        <route edges="-19930601#1 -19930608#17 -19930608#16 -19930608#15 -15179098#6 -15179098#4 -15179098#3 -15179098#2 -15179098#1 -15179098#0 -413399528 -413399527#6 -413399527#5 413399527#5"/>
    </vehicle>
    <vehicle id="veh112" type="passenger" depart="80.97" departLane="best">
        <route edges="139470231 124086106#0 124086106#1 124086106#2 124086106#3 124086106#4 20128629"/>
    </vehicle>
    <vehicle id="veh113" type="passenger" depart="81.69" departLane="best">
        <route edges="-20123316#1 20128723 -20128721#0 124086106#1 124086106#2 124086106#3 -20124464"/>
    </vehicle>
    <vehicle id="veh114" type="passenger" depart="82.41" departLane="best">
        <route edges="390634953#8 -379738164#0 -379738160#4 -379738160#3 -379738160#2 -379738160#1 -379738160#0 -262898541#1 -262898541#0 -21232573#3 -21232573#2 -21232573#0"/>
    </vehicle>
    <vehicle id="veh116" type="passenger" depart="83.86" departLane="best">
        <route edges="-41163298#2 41163298#2 41163298#3 -379738160#0 -262898541#1 19930578#0 19930578#1 19930578#2 295873622#1 379738162"/>
    </vehicle>
    <vehicle id="veh118" type="passenger" depart="85.30" departLane="best">
        <route edges="-20123316#1 20128723 -20128721#0 -23704217 290089185 -390634953#6 -390634953#5 -390634953#3 17821059#0 -19930608#29 -19930608#28 -21224598 -20124639#4 -20124639#3 -20124639#2 -20124639#1 101081088#4 101081088#5 101081088#6 101081088#7 -76536995#3 -76536995#2 -76536995#1"/>
    </vehicle>
    <vehicle id="veh120" type="passenger" depart="86.75" departLane="best">
        <route edges="-20129449#3 -20129449#1 -20129449#0 -413399527#2 -413399527#1 20135583"/>
    </vehicle>
    <vehicle id="veh121" type="passenger" depart="87.47" departLane="best">
        <route edges="-124086106#7 -124086106#6 -124086106#5 -124086106#4 -124086106#3 -124086106#2 -124086106#1 20128721#0 20128721#1 -20116719 124086104#1"/>
    </vehicle>
    <vehicle id="veh122" type="passenger" depart="88.20" departLane="best">