<?xml version="1.0" encoding="UTF-8"?>
<!-- generated on 2018-04-27 22:36:03.162621 by $Id$ via randomTrips.py
  options: 
-->
<routes xmlns:xsi="http://www.w3.org/2001/XMLSchema-instance" xsi:noNamespaceSchemaLocation="http://sumo.dlr.de/xsd/routes_file.xsd">
    <vType id="passenger" speedFactor="normc(1.00,0.10,0.20,2.00)" vClass="passenger">
    </vType>
    <trip id="veh0" depart="0.00" departLane="best" from="19930608#28" to="-124086105" type="passenger"/>
    <trip id="veh4" depart="2.89" departLane="best" from="-20140332" to="-124086106#4" type="passenger"/>
    <trip id="veh6" depart="4.34" departLane="best" from="-101521972" to="-20135920#3" type="passenger"/>
    <trip id="veh7" depart="5.06" departLane="best" from="20116617#0" to="19930576" type="passenger"/>
    <trip id="veh12" depart="8.68" departLane="best" from="70260003#0" to="-509257350#1" type="passenger"/>
    <trip id="veh14" depart="10.12" departLane="best" from="21232573#4" to="20118467" type="passenger"/>
    <trip id="veh16" depart="11.57" departLane="best" from="-41405321#6" to="509257352" type="passenger"/>
    <trip id="veh17" depart="12.29" departLane="best" from="-20136531#1" to="19930608#13" type="passenger"/>
    <trip id="veh18" depart="13.01" departLane="best" from="21232573#0" to="20118480#8" type="passenger"/>
    <trip id="veh20" depart="14.46" departLane="best" from="20124464" to="-180126048#0" type="passenger"/>
    <trip id="veh24" depart="17.35" departLane="best" from="19930608#19" to="-70262161#0" type="passenger"/>
    <trip id="veh25" depart="18.07" departLane="best" from="-20124639#5" to="379738162" type="passenger"/>
    <trip id="veh26" depart="18.80" departLane="best" from="20116617#0" to="20118467" type="passenger"/>
    <trip id="veh28" depart="20.24" departLane="best" from="-19930608#22" to="-76536995#0" type="passenger"/>
    <trip id="veh29" depart="20.96" departLane="best" from="-509257352" to="20128721#2" type="passenger"/>
    <trip id="veh30" depart="21.69" departLane="best" from="21232573#0" to="20136531#1" type="passenger"/>
    <trip id="veh31" depart="22.41" departLane="best" from="-20123316#1" to="-15089727#5" type="passenger"/>
    <trip id="veh32" depart="23.13" departLane="best" from="-20129449#3" to="-262898541#1" type="passenger"/>
    <trip id="veh33" depart="23.86" departLane="best" from="-20118467" to="379738164#1" type="passenger"/>
    <trip id="veh34" depart="24.58" departLane="best" from="390634953#0" to="-413399527#0" type="passenger"/>
    <trip id="veh35" depart="25.30" departLane="best" from="20116617#0" to="-76536995#0" type="passenger"/>
    <trip id="veh36" depart="26.03" departLane="best" from="413399527#0" to="124086104#1" type="passenger"/>
    <trip id="veh37" depart="26.75" departLane="best" from="-20124639#14" to="-21232573#0" type="passenger"/>
    <trip id="veh38" depart="27.47" departLane="best" from="-70260003#3" to="-23603527" type="passenger"/>
    <trip id="veh39" depart="28.19" departLane="best" from="124086106#0" to="272931651#1" type="passenger"/>
    <trip id="veh41" depart="29.64" departLane="best" from="76536995#3" to="15089733#4" type="passenger"/>
    <trip id="veh44" depart="31.81" departLane="best" from="20139428" to="101386401#2" type="passenger"/>
    <trip id="veh45" depart="32.53" departLane="best" from="-124086104#1" to="-76536995#0" type="passenger"/>
    <trip id="veh46" depart="33.25" departLane="best" from="76536995#1" to="180904976" type="passenger"/>
    <trip id="veh47" depart="33.98" departLane="best" from="-101386401#2" to="20131567#2" type="passenger"/>
    <trip id="veh48" depart="34.70" departLane="best" from="20118480#4" to="19930576" type="passenger"/>
    <trip id="veh49" depart="35.42" departLane="best" from="-20124639#5" to="20124639#14" type="passenger"/>
    <trip id="veh51" depart="36.87" departLane="best" from="-23958820#1" to="41163302#0" type="passenger"/>
    <trip id="veh52" depart="37.59" departLane="best" from="390634953#0" to="-23603528#1" type="passenger"/>
    <trip id="veh53" depart="38.31" departLane="best" from="-379738162" to="-20129449#0" type="passenger"/>
    <trip id="veh54" depart="39.04" departLane="best" from="413399527#0" to="23958820#1" type="passenger"/>
    <trip id="veh55" depart="39.76" departLane="best" from="-20128721#2" to="20124639#12" type="passenger"/>
    <trip id="veh59" depart="42.65" departLane="best" from="-101081088#1" to="-413399527#2" type="passenger"/>
    <trip id="veh60" depart="43.38" departLane="best" from="-101386401#2" to="379738162" type="passenger"/>
    <trip id="veh61" depart="44.10" departLane="best" from="390634953#0" to="20140332" type="passenger"/>
    <trip id="veh62" depart="44.82" departLane="best" from="-20129449#1" to="-19930608#30" type="passenger"/>
    <trip id="veh63" depart="45.54" departLane="best" from="390634953#0" to="40597178#5" type="passenger"/>
    <trip id="veh65" depart="46.99" departLane="best" from="-124086106#7" to="20135583" type="passenger"/>
    <trip id="veh67" depart="48.44" departLane="best" from="-351667209" to="19930595" type="passenger"/>
    <trip id="veh68" depart="49.16" departLane="best" from="-20124639#14" to="23958820#1" type="passenger"/>
    <trip id="veh69" depart="49.88" departLane="best" from="-20140332" to="-20139428" type="passenger"/>
    <trip id="veh70" depart="50.60" departLane="best" from="-509257350#1" to="20131567#2" type="passenger"/>
    <trip id="veh72" depart="52.05" departLane="best" from="-21232570#0" to="17825832#3" type="passenger"/>
    <trip id="veh76" depart="54.94" departLane="best" from="-124086106#7" to="20123316#1" type="passenger"/>
    <trip id="veh77" depart="55.67" departLane="best" from="-20123316#1" to="351667209" type="passenger"/>
    <trip id="veh78" depart="56.39" departLane="best" from="24942157#1" to="-20116617#0" type="passenger"/>
    <trip id="veh79" depart="57.11" departLane="best" from="-20123316#1" to="20128629" type="passenger"/>
    <trip id="veh80" depart="57.83" departLane="best" from="-20118467" to="-20124464" type="passenger"/>
    <trip id="veh82" depart="59.28" departLane="best" from="-273030038#0" to="20136531#1" type="passenger"/>
    <trip id="veh85" depart="61.45" departLane="best" from="-20140332" to="124086104#1" type="passenger"/>
    <trip id="veh87" depart="62.89" departLane="best" from="76536995#0" to="-20118480#4" type="passenger"/>
    <trip id="veh88" depart="63.62" departLane="best" from="-20137823" to="-512614095#0" type="passenger"/>
    <trip id="veh89" depart="64.34" departLane="best" from="262898541#1" to="-21232573#0" type="passenger"/>
    <trip id="veh91" depart="65.79" departLane="best" from="-20140332" to="-390634953#0" type="passenger"/>
    <trip id="veh92" depart="66.51" departLane="best" from="-20124639#14" to="359856467" type="passenger"/>
    <trip id="veh93" depart="67.23" departLane="best" from="-22873068#0" to="23958814#9" type="passenger"/>
    <trip id="veh94" depart="67.95" departLane="best" from="-509257352" to="-19930608#10" type="passenger"/>
    <trip id="veh95" depart="68.68" departLane="best" from="76536995#7" to="20140332" type="passenger"/>
    <trip id="veh96" depart="69.40" departLane="best" from="70262161#0" to="379738162" type="passenger"/>
    <trip id="veh98" depart="70.85" departLane="best" from="-351667209" to="-20139428" type="passenger"/>
    <trip id="veh99" depart="71.57" departLane="best" from="-20136881" to="-19930608#4" type="passenger"/>
    <trip id="veh100" depart="72.29" departLane="best" from="-20136531#1" to="509257352" type="passenger"/>
    <trip id="veh101" depart="73.02" departLane="best" from="-20124639#14" to="20136531#1" type="passenger"/>
    <trip id="veh102" depart="73.74" departLane="best" from="-23958820#1" to="101386401#2" type="passenger"/>
    <trip id="veh103" depart="74.46" departLane="best" from="70260003#0" to="70260003#7" type="passenger"/>
    <trip id="veh104" depart="75.18" departLane="best" from="-509257352" to="20131567#2" type="passenger"/>
    <trip id="veh105" depart="75.91" departLane="best" from="-19930576" to="-40597178#5" type="passenger"/>
    <trip id="veh109" depart="78.80" departLane="best" from="-379738162" to="22873065#1" type="passenger"/>
    <trip id="veh110" depart="79.52" departLane="best" from="-19930601#1" to="413399527#5" type="passenger"/>
    <trip id="veh112" depart="80.97" departLane="best" from="139470231" to="20128629" type="passenger"/>
    <trip id="veh113" depart="81.69" departLane="best" from="-20123316#1" to="-20124464" type="passenger"/>
    <trip id="veh114" depart="82.41" departLane="best" from="390634953#8" to="-21232573#0" type="passenger"/>
    <trip id="veh116" depart="83.86" departLane="best" from="-41163298#2" to="379738162" type="passenger"/>
    <trip id="veh118" depart="85.30" departLane="best" from="-20123316#1" to="-76536995#1" type="passenger"/>
    <trip id="veh120" depart="86.75" departLane="best" from="-20129449#3" to="20135583" type="passenger"/>
    <trip id="veh121" depart="87.47" departLane="best" from="-124086106#7" to="124086104#1" type="passenger"/>
    <trip id="veh122" depart="88.20" departLane="best" from="76536995#5" to="70262164#1" type="passenger"/>
    <trip id="veh123" depart="88.92" departLane="best" from="-124086106#7" to="-20139428" type="passenger"/>
    <trip id="veh124" depart="89.64" departLane="best" from="-20124639#14" to="379738162" type="passenger"/>
    <trip id="veh125" depart="90.37" departLane="best" from="390634953#0" to="23958820#1" type="passenger"/>
    <trip id="veh127" depart="91.81" departLane="best" from="21232573#0" to="20129449#3" type="passenger"/>
    <trip id="veh128" depart="92.53" departLane="best" from="15179098#6" to="509257352" type="passenger"/>
    <trip id="veh129" depart="93.26" departLane="best" from="20116617#0" to="-118743771#2" type="passenger"/>
    <trip id="veh132" depart="95.43" departLane="best" from="-17927627#5" to="-20123316#0" type="passenger"/>
    <trip id="veh134" depart="96.87" departLane="best" from="-20128629" to="20118467" type="passenger"/>
    <trip id="veh135" depart="97.59" departLane="best" from="19930608#15" to="-23704217" type="passenger"/>
    <trip id="veh137" depart="99.04" departLane="best" from="-20140332" to="-390634953#0" type="passenger"/>
    <trip id="veh138" depart="99.76" departLane="best" from="-101260417#2" to="20135920#5" type="passenger"/>
    <trip id="veh139" depart="100.49" departLane="best" from="19930608#22" to="-22873072#4" type="passenger"/>
    <trip id="veh141" depart="101.93" departLane="best" from="-20140332" to="-118754492#2" type="passenger"/>
    <trip id="veh142" depart="102.66" departLane="best" from="-124086106#7" to="268388495#0" type="passenger"/>
    <trip id="veh143" depart="103.38" departLane="best" from="41163310#4" to="19930576" type="passenger"/>
    <trip id="veh145" depart="104.82" departLane="best" from="-19930576" to="-20124464" type="passenger"/>
    <trip id="veh146" depart="105.55" departLane="best" from="-20129449#3" to="272931651#1" type="passenger"/>
    <trip id="veh147" depart="106.27" departLane="best" from="20139428" to="23958814#5" type="passenger"/>
    <trip id="veh148" depart="106.99" departLane="best" from="41163298#3" to="-20139428" type="passenger"/>
    <trip id="veh149" depart="107.72" departLane="best" from="-20124639#14" to="-20123316#0" type="passenger"/>
    <trip id="veh151" depart="109.16" departLane="best" from="-20137823" to="20123316#1" type="passenger"/>
    <trip id="veh152" depart="109.88" departLane="best" from="-19930576" to="379738162" type="passenger"/>
    <trip id="veh153" depart="110.61" departLane="best" from="268388495#4" to="509257352" type="passenger"/>
    <trip id="veh156" depart="112.78" departLane="best" from="-20131567#2" to="379738162" type="passenger"/>
    <trip id="veh157" depart="113.50" departLane="best" from="20139428" to="23958820#1" type="passenger"/>
    <trip id="veh159" depart="114.94" departLane="best" from="20139428" to="-20123316#0" type="passenger"/>
    <trip id="veh160" depart="115.67" departLane="best" from="390634953#0" to="23603537" type="passenger"/>
    <trip id="veh161" depart="116.39" departLane="best" from="-20118467" to="20137823" type="passenger"/>
    <trip id="veh162" depart="117.11" departLane="best" from="-23958820#1" to="-41163302#7" type="passenger"/>
    <trip id="veh165" depart="119.28" departLane="best" from="-20131567#2" to="23958820#1" type="passenger"/>
    <trip id="veh166" depart="120.01" departLane="best" from="70262161#0" to="-390634953#0" type="passenger"/>
    <trip id="veh167" depart="120.73" departLane="best" from="19930608#6" to="101081088#0" type="passenger"/>
    <trip id="veh168" depart="121.45" departLane="best" from="76536995#0" to="19930576" type="passenger"/>
    <trip id="veh169" depart="122.17" departLane="best" from="512614095#0" to="-20123316#0" type="passenger"/>
    <trip id="veh170" depart="122.90" departLane="best" from="70262161#0" to="-20129449#0" type="passenger"/>
    <trip id="veh171" depart="123.62" departLane="best" from="70262161#0" to="-23958814#3" type="passenger"/>
    <trip id="veh174" depart="125.79" departLane="best" from="15089727#4" to="15179098#0" type="passenger"/>
    <trip id="veh176" depart="127.23" departLane="best" from="-20124639#14" to="20129449#3" type="passenger"/>
    <trip id="veh177" depart="127.96" departLane="best" from="-101081088#5" to="379738162" type="passenger"/>
    <trip id="veh178" depart="128.68" departLane="best" from="-509080961#2" to="20131567#2" type="passenger"/>
    <trip id="veh180" depart="130.13" departLane="best" from="-20135920#6" to="-20116617#0" type="passenger"/>
    <trip id="veh182" depart="131.57" departLane="best" from="-20129449#3" to="21232570#6" type="passenger"/>
    <trip id="veh183" depart="132.29" departLane="best" from="20124464" to="-40597180#2" type="passenger"/>
    <trip id="veh184" depart="133.02" departLane="best" from="-20129449#3" to="101274695#5" type="passenger"/>
    <trip id="veh185" depart="133.74" departLane="best" from="-20137823" to="-40597178#2" type="passenger"/>
    <trip id="veh186" depart="134.46" departLane="best" from="-17825832#12" to="101386401#2" type="passenger"/>
    <trip id="veh187" depart="135.19" departLane="best" from="512614095#0" to="20128629" type="passenger"/>
    <trip id="veh188" depart="135.91" departLane="best" from="41163310#1" to="20118480#0" type="passenger"/>
    <trip id="veh189" depart="136.63" departLane="best" from="-20128721#2" to="19930590" type="passenger"/>
    <trip id="veh190" depart="137.36" departLane="best" from="-101081088#1" to="-390634953#0" type="passenger"/>
    <trip id="veh192" depart="138.80" departLane="best" from="20116617#0" to="124086104#1" type="passenger"/>
    <trip id="veh193" depart="139.52" departLane="best" from="-21232573#2" to="-20139428" type="passenger"/>
    <trip id="veh194" depart="140.25" departLane="best" from="-295873622#1" to="272931651#1" type="passenger"/>
    <trip id="veh197" depart="142.42" departLane="best" from="19930608#11" to="-509080961#0" type="passenger"/>
    <trip id="veh201" depart="145.31" departLane="best" from="-20123316#1" to="124086106#7" type="passenger"/>
    <trip id="veh202" depart="146.03" departLane="best" from="22372827" to="-20116617#0" type="passenger"/>
    <trip id="veh203" depart="146.75" departLane="best" from="-20137823" to="20123316#1" type="passenger"/>
    <trip id="veh205" depart="148.20" departLane="best" from="-379738162" to="-21232573#0" type="passenger"/>
    <trip id="veh206" depart="148.92" departLane="best" from="20116617#0" to="-101473342#1" type="passenger"/>
    <trip id="veh210" depart="151.81" departLane="best" from="-40597178#9" to="-19930608#1" type="passenger"/>
    <trip id="veh211" depart="152.54" departLane="best" from="-20124639#14" to="21232570#7" type="passenger"/>
    <trip id="veh212" depart="153.26" departLane="best" from="-23958820#1" to="20136881" type="passenger"/>
    <trip id="veh214" depart="154.71" departLane="best" from="139470231" to="40597180#0" type="passenger"/>
    <trip id="veh215" depart="155.43" departLane="best" from="40597178#2" to="20118467" type="passenger"/>
    <trip id="veh217" depart="156.87" departLane="best" from="21232573#0" to="19930590" type="passenger"/>
    <trip id="veh219" depart="158.32" departLane="best" from="-20124639#12" to="20123316#1" type="passenger"/>
    <trip id="veh221" depart="159.77" departLane="best" from="180126049#1" to="-379738164#0" type="passenger"/>
    <trip id="veh222" depart="160.49" departLane="best" from="-124086106#7" to="-390634953#0" type="passenger"/>
    <trip id="veh223" depart="161.21" departLane="best" from="-20128629" to="-413399527#0" type="passenger"/>
    <trip id="veh224" depart="161.93" departLane="best" from="-509257352" to="-20124639#2" type="passenger"/>
    <trip id="veh225" depart="162.66" departLane="best" from="-20123316#1" to="20128721#2" type="passenger"/>
    <trip id="veh226" depart="163.38" departLane="best" from="20124464" to="-20116617#0" type="passenger"/>
    <trip id="veh227" depart="164.10" departLane="best" from="-20137823" to="19930576" type="passenger"/>
    <trip id="veh228" depart="164.83" departLane="best" from="-20137823" to="-20139428" type="passenger"/>
    <trip id="veh229" depart="165.55" departLane="best" from="-20140332" to="304166215" type="passenger"/>
    <trip id="veh230" depart="166.27" departLane="best" from="124086104#0" to="20128721#2" type="passenger"/>
    <trip id="veh231" depart="167.00" departLane="best" from="23704218#1" to="20135583" type="passenger"/>
    <trip id="veh232" depart="167.72" departLane="best" from="-20136531#1" to="-101473343#0" type="passenger"/>
    <trip id="veh233" depart="168.44" departLane="best" from="22873072#3" to="41163298#3" type="passenger"/>
    <trip id="veh235" depart="169.89" departLane="best" from="-509257352" to="20118467" type="passenger"/>
    <trip id="veh237" depart="171.33" departLane="best" from="-20140332" to="-124086106#2" type="passenger"/>
    <trip id="veh238" depart="172.06" departLane="best" from="-20131567#2" to="20128721#0" type="passenger"/>
    <trip id="veh240" depart="173.50" departLane="best" from="-23958820#1" to="-20124464" type="passenger"/>
    <trip id="veh241" depart="174.22" departLane="best" from="17927627#5" to="-124086105" type="passenger"/>
    <trip id="veh243" depart="175.67" departLane="best" from="-101521972" to="20124639#14" type="passenger"/>
    <trip id="veh244" depart="176.39" departLane="best" from="-17927627#9" to="124086104#1" type="passenger"/>
    <trip id="veh245" depart="177.12" departLane="best" from="-124086104#1" to="-76536995#0" type="passenger"/>
    <trip id="veh246" depart="177.84" departLane="best" from="-20118467" to="-413954038#1" type="passenger"/>
    <trip id="veh250" depart="180.73" departLane="best" from="-101386401#2" to="19930576" type="passenger"/>
    <trip id="veh251" depart="181.45" departLane="best" from="20116617#0" to="20136531#1" type="passenger"/>
    <trip id="veh252" depart="182.18" departLane="best" from="20116617#0" to="20135583" type="passenger"/>
    <trip id="veh253" depart="182.90" departLane="best" from="512614095#0" to="-20135920#5" type="passenger"/>
    <trip id="veh255" depart="184.35" departLane="best" from="-17825832#0" to="20128629" type="passenger"/>
    <trip id="veh256" depart="185.07" departLane="best" from="-76536995#1" to="-20139428" type="passenger"/>
    <trip id="veh257" depart="185.79" departLane="best" from="20123316#0" to="20135583" type="passenger"/>
    <trip id="veh258" depart="186.51" departLane="best" from="-19930608#7" to="20118467" type="passenger"/>
    <trip id="veh262" depart="189.41" departLane="best" from="-20129449#3" to="20128629" type="passenger"/>
    <trip id="veh263" depart="190.13" departLane="best" from="70260003#4" to="-76536995#11" type="passenger"/>
    <trip id="veh264" depart="190.85" departLane="best" from="20124464" to="-20116617#0" type="passenger"/>
    <trip id="veh265" depart="191.57" departLane="best" from="20123316#0" to="20123316#1" type="passenger"/>
    <trip id="veh267" depart="193.02" departLane="best" from="22873065#2" to="20118467" type="passenger"/>
    <trip id="veh268" depart="193.74" departLane="best" from="-15089727#2" to="509257352" type="passenger"/>
    <trip id="veh270" depart="195.19" departLane="best" from="-20140332" to="-70262161#0" type="passenger"/>
    <trip id="veh271" depart="195.91" departLane="best" from="-379738162" to="-512614095#0" type="passenger"/>
    <trip id="veh272" depart="196.64" departLane="best" from="22372827" to="20137823" type="passenger"/>
    <trip id="veh274" depart="198.08" departLane="best" from="19930608#19" to="20140332" type="passenger"/>
    <trip id="veh275" depart="198.80" departLane="best" from="20124464" to="101521972" type="passenger"/>
    <trip id="veh277" depart="200.25" departLane="best" from="-20128629" to="20137823" type="passenger"/>
    <trip id="veh278" depart="200.97" departLane="best" from="-509080961#1" to="124086106#7" type="passenger"/>
    <trip id="veh279" depart="201.70" departLane="best" from="-20140332" to="20131567#2" type="passenger"/>
    <trip id="veh280" depart="202.42" departLane="best" from="-20124639#9" to="22372826#3" type="passenger"/>
    <trip id="veh282" depart="203.86" departLane="best" from="390634953#0" to="-21232573#0" type="passenger"/>
    <trip id="veh283" depart="204.59" departLane="best" from="-23958820#1" to="20118467" type="passenger"/>
    <trip id="veh284" depart="205.31" departLane="best" from="-20136531#1" to="-124086106#1" type="passenger"/>
    <trip id="veh286" depart="206.76" departLane="best" from="-20118467" to="20136881" type="passenger"/>
    <trip id="veh287" depart="207.48" departLane="best" from="-20131567#2" to="24942157#3" type="passenger"/>
    <trip id="veh288" depart="208.20" departLane="best" from="20123316#0" to="-390634953#0" type="passenger"/>
    <trip id="veh289" depart="208.92" departLane="best" from="-101386401#2" to="40597178#8" type="passenger"/>
    <trip id="veh291" depart="210.37" departLane="best" from="-351667209" to="20135583" type="passenger"/>
    <trip id="veh292" depart="211.09" departLane="best" from="20123316#0" to="20124639#14" type="passenger"/>
    <trip id="veh293" depart="211.82" departLane="best" from="-351667209" to="20136881" type="passenger"/>
    <trip id="veh295" depart="213.26" departLane="best" from="20123316#0" to="-413399527#0" type="passenger"/>
    <trip id="veh296" depart="213.99" departLane="best" from="118743771#2" to="124086106#7" type="passenger"/>
    <trip id="veh297" depart="214.71" departLane="best" from="-41405321#0" to="101386401#2" type="passenger"/>
    <trip id="veh299" depart="216.15" departLane="best" from="20123316#0" to="-273030038#0" type="passenger"/>
    <trip id="veh300" depart="216.88" departLane="best" from="-20124639#14" to="-20124464" type="passenger"/>
    <trip id="veh302" depart="218.32" departLane="best" from="-41405321#5" to="20135583" type="passenger"/>
    <trip id="veh304" depart="219.77" departLane="best" from="-351667209" to="20131567#2" type="passenger"/>
    <trip id="veh305" depart="220.49" departLane="best" from="70262161#0" to="17927627#9" type="passenger"/>
    <trip id="veh307" depart="221.94" departLane="best" from="-20115944" to="-20139496#0" type="passenger"/>
    <trip id="veh309" depart="223.38" departLane="best" from="-41405321#17" to="-379738160#4" type="passenger"/>
    <trip id="veh310" depart="224.11" departLane="best" from="70262161#0" to="19930608#16" type="passenger"/>
    <trip id="veh311" depart="224.83" departLane="best" from="20123316#0" to="-20124464" type="passenger"/>
    <trip id="veh314" depart="227.00" departLane="best" from="-264212543#0" to="101521972" type="passenger"/>
    <trip id="veh316" depart="228.44" departLane="best" from="512614095#0" to="124086106#7" type="passenger"/>
    <trip id="veh318" depart="229.89" departLane="best" from="-124086106#7" to="20123316#1" type="passenger"/>
    <trip id="veh320" depart="231.34" departLane="best" from="-70260003#7" to="-41163302#3" type="passenger"/>
    <trip id="veh321" depart="232.06" departLane="best" from="76536995#0" to="-20123316#0" type="passenger"/>
    <trip id="veh322" depart="232.78" departLane="best" from="20131567#0" to="20118467" type="passenger"/>
    <trip id="veh324" depart="234.23" departLane="best" from="-41163298#2" to="118754492#3" type="passenger"/>
    <trip id="veh325" depart="234.95" departLane="best" from="-21232573#3" to="23958814#3" type="passenger"/>
    <trip id="veh326" depart="235.67" departLane="best" from="76536995#0" to="-41163302#8" type="passenger"/>
    <trip id="veh327" depart="236.40" departLane="best" from="17927627#2" to="20118467" type="passenger"/>
    <trip id="veh329" depart="237.84" departLane="best" from="-20118467" to="-20139428" type="passenger"/>
    <trip id="veh332" depart="240.01" departLane="best" from="-101260417#0" to="118754492#3" type="passenger"/>
    <trip id="veh333" depart="240.73" departLane="best" from="139470231" to="-390634953#0" type="passenger"/>
    <trip id="veh334" depart="241.46" departLane="best" from="-20123316#1" to="20129449#3" type="passenger"/>
    <trip id="veh335" depart="242.18" departLane="best" from="20123316#0" to="124086104#1" type="passenger"/>
    <trip id="veh336" depart="242.90" departLane="best" from="20123316#0" to="379738160#2" type="passenger"/>
    <trip id="veh337" depart="243.63" departLane="best" from="20139428" to="20123316#1" type="passenger"/>
    <trip id="veh338" depart="244.35" departLane="best" from="20116617#1" to="379738162" type="passenger"/>
    <trip id="veh339" depart="245.07" departLane="best" from="-20140332" to="19930576" type="passenger"/>
    <trip id="veh340" depart="245.79" departLane="best" from="20116617#0" to="351667209" type="passenger"/>
    <trip id="veh341" depart="246.52" departLane="best" from="21232570#4" to="-20116617#0" type="passenger"/>
    <trip id="veh342" depart="247.24" departLane="best" from="-19930608#29" to="-413399527#0" type="passenger"/>
    <trip id="veh343" depart="247.96" departLane="best" from="-20128721#1" to="-20124464" type="passenger"/>
    <trip id="veh344" depart="248.69" departLane="best" from="20123316#0" to="20129449#3" type="passenger"/>
    <trip id="veh347" depart="250.85" departLane="best" from="-20129449#3" to="-21232573#0" type="passenger"/>
    <trip id="veh351" depart="253.75" departLane="best" from="-101521972" to="20135583" type="passenger"/>
    <trip id="veh352" depart="254.47" departLane="best" from="-268388495#1" to="20124639#14" type="passenger"/>
    <trip id="veh354" depart="255.91" departLane="best" from="124086106#2" to="20123316#1" type="passenger"/>
    <trip id="veh356" depart="257.36" departLane="best" from="-20135583" to="-41405321#5" type="passenger"/>
    <trip id="veh358" depart="258.81" departLane="best" from="-20131567#2" to="20128721#2" type="passenger"/>
    <trip id="veh359" depart="259.53" departLane="best" from="-20128721#0" to="40597178#0" type="passenger"/>
    <trip id="veh361" depart="260.98" departLane="best" from="-23958820#1" to="-413399527#0" type="passenger"/>
    <trip id="veh362" depart="261.70" departLane="best" from="-20129449#3" to="41405321#9" type="passenger"/>
    <trip id="veh363" depart="262.42" departLane="best" from="-20137823" to="17824973#0" type="passenger"/>
    <trip id="veh364" depart="263.14" departLane="best" from="76536995#0" to="20124639#3" type="passenger"/>
    <trip id="veh365" depart="263.87" departLane="best" from="-509257352" to="101386401#2" type="passenger"/>
    <trip id="veh369" depart="266.76" departLane="best" from="-509257352" to="379738162" type="passenger"/>
    <trip id="veh370" depart="267.48" departLane="best" from="-21232570#0" to="20129449#3" type="passenger"/>
    <trip id="veh371" depart="268.20" departLane="best" from="-15089727#3" to="509257352" type="passenger"/>
    <trip id="veh372" depart="268.93" departLane="best" from="15089733#6" to="-21232570#5" type="passenger"/>
    <trip id="veh374" depart="270.37" departLane="best" from="76536995#0" to="351667209" type="passenger"/>
    <trip id="veh375" depart="271.10" departLane="best" from="-23958820#1" to="-20123316#0" type="passenger"/>
    <trip id="veh377" depart="272.54" departLane="best" from="20124464" to="15089733#2" type="passenger"/>
    <trip id="veh378" depart="273.26" departLane="best" from="76536995#0" to="-21232573#0" type="passenger"/>
    <trip id="veh379" depart="273.99" departLane="best" from="-509257352" to="-76536995#0" type="passenger"/>
    <trip id="veh380" depart="274.71" departLane="best" from="413399527#0" to="15089727#6" type="passenger"/>
    <trip id="veh381" depart="275.43" departLane="best" from="390634953#0" to="23958820#1" type="passenger"/>
    <trip id="veh382" depart="276.16" departLane="best" from="-20137823" to="379738162" type="passenger"/>
    <trip id="veh383" depart="276.88" departLane="best" from="-379738162" to="20137823" type="passenger"/>
    <trip id="veh384" depart="277.60" departLane="best" from="-20128629" to="-40597179#0" type="passenger"/>
    <trip id="veh385" depart="278.33" departLane="best" from="139470231" to="76536995#6" type="passenger"/>
    <trip id="veh387" depart="279.77" departLane="best" from="-509257352" to="19930576" type="passenger"/>
    <trip id="veh388" depart="280.49" departLane="best" from="-23958820#1" to="-413399527#0" type="passenger"/>
    <trip id="veh397" depart="287.00" departLane="best" from="139470231" to="23958820#1" type="passenger"/>
    <trip id="veh398" depart="287.72" departLane="best" from="390634953#0" to="101521972" type="passenger"/>
    <trip id="veh399" depart="288.45" departLane="best" from="-41163302#9" to="124086104#1" type="passenger"/>
    <trip id="veh400" depart="289.17" departLane="best" from="20124639#13" to="101386401#1" type="passenger"/>