<?xml version="1.0" encoding="UTF-8"?>

<configuration xmlns:xsi="http://www.w3.org/2001/XMLSchema-instance" xsi:noNamespaceSchemaLocation="http://sumo.dlr.de/xsd/polyconvertConfiguration.xsd">

    <input>
        <net-file value="/mnt/c/my_programs/SCHOOL/MSD/GIT/core/tests/ImagineRIT/rit_busy1/2018-04-27-22-35-53/osm.net.xml"/>
        <osm-files value="osm_bbox.osm.xml"/>
        <osm.keep-full-type value="true"/>
        <type-file value="/home/gsoponski/sumo-0.32.0/data/typemap/osmPolyconvert.typ.xml"/>
    </input>

    <output>
        <output-file value="/mnt/c/my_programs/SCHOOL/MSD/GIT/core/tests/ImagineRIT/rit_busy1/2018-04-27-22-35-53/osm.poly.xml"/>
    </output>

    <report>
        <verbose value="true"/>
    </report>

</configuration>
